LAMMPS (29 Aug 2024)
# LAMMPS Crystal Melting Script for Li2Ti3MnO8
# Stable heating protocol: NVT first, then NPT after liquid forms
units metal
atom_style charge
boundary p p p
processors * * *

# Read CRYSTAL structure (charges may be present in data file, but we disable Coulomb here)
read_data Li2Ti3MnO8_crystal.data
Reading data file ...
  orthogonal box = (0 0 0) to (34.106564 34.106564 34.106564)
  reading atoms ...
  3584 atoms

# --- MELT: NO COULOMB (Buckingham only), no kspace ---
pair_style   buck 12.0
pair_modify  mix arithmetic
# Generic oxide Buckingham (CLAYFF-compatible)
pair_coeff * * 1388.77 0.3623 0.0

neighbor 2.0 bin
neigh_modify every 1 delay 0 check yes
thermo_modify lost error

# Initial minimization
minimize 1.0e-4 1.0e-6 1000 10000

CITE-CITE-CITE-CITE-CITE-CITE-CITE-CITE-CITE-CITE-CITE-CITE-CITE

Your simulation uses code contributions which should be cited:

- Type Label Framework: https://doi.org/10.1021/acs.jpcb.3c08419

@Article{Gissinger24,
 author = {Jacob R. Gissinger, Ilia Nikiforov, Yaser Afshar, Brendon Waters, Moon-ki Choi, Daniel S. Karls, Alexander Stukowski, Wonpil Im, Hendrik Heinz, Axel Kohlmeyer, and Ellad B. Tadmor},
 title = {Type Label Framework for Bonded Force Fields in LAMMPS},
 journal = {J. Phys. Chem. B},
 year =    2024,
 volume =  128,
 number =  13,
 pages =   {3282â€“-3297}
}

CITE-CITE-CITE-CITE-CITE-CITE-CITE-CITE-CITE-CITE-CITE-CITE-CITE

Generated 0 of 6 mixed pair_coeff terms from arithmetic mixing rule
Step          Temp          E_pair         E_mol          TotEng         Press
0   0              50310.804      0              50310.804      4072391.9
Loop time of 0.0466762 on 6 procs for 5 steps with 3584 atoms

Minimization stats:
  Stopping criterion = energy tolerance
  Energy initial, next-to-last, final =
  Force two-norm initial, final = 644.84105 20.767724
  Force max component initial, final = 12.406721 0.38229428
  Final line search alpha, max atom move = 0.40905389 0.15637896
  Iterations, force evaluations = 5 9

# Gentle startup with velocity limiting
velocity all create 10.0 12345 dist gaussian mom yes rot yes
fix lim all nve/limit 0.05
fix tl  all langevin 10.0 300.0 100.0 90210
timestep 0.001
run 10000
Generated 0 of 6 mixed pair_coeff terms from arithmetic mixing rule
Step          Temp          E_pair         E_mol          TotEng         Press
5   10             47758.585      0              47763.216      3890473
Loop time of 38.7468 on 6 procs for 10000 steps with 3584 atoms

unfix lim
unfix tl

# Gradual HEAT under NVT (constant volume)
fix heat all nvt temp 300.0 4500 100.0
timestep 0.001
thermo 1000
thermo_style custom step time temp press vol etotal ke pe density
dump 1 all custom 50000 Li2Ti3MnO8_melting_trajectory.dump id type x y z vx vy vz
print "Starting MELTING of Li2Ti3MnO8: NVT heating 300K â†’ 4500K"
Starting MELTING of Li2Ti3MnO8: NVT heating 300K †’ 4500K
run 100000
Generated 0 of 6 mixed pair_coeff terms from arithmetic mixing rule
Step          Time           Temp          Press          Volume         TotEng         KinEng         PotEng        Density
10005   10.005         1423.5768      3075969.1      39674.723      33458.914      659.31405      32799.6        3.6474168
Averages over the last 12 of 24 rows, steps 22000 to 33000:
Temp Press Volume TotEng KinEng PotEng Density
1637.72 3.07107e+06 39674.7 33431.6 758.493 32673.1 3.64742
