LAMMPS (29 Aug 2024)
# LAMMPS Quenching Script for Li2Fe3SbO8 - 5 K/ps
# VERY SLOW quench - mostly crystalline
units metal
atom_style charge
boundary p p p
processors * * *  # Use all available processors

# FIRST: Read structure to define box
read_data Li2Fe3SbO8_melted_liquid.data
Reading data file ...
  triclinic box = (0 0 0) to (30.031839 26.008336 48.89449) with tilt (-15.015918 0 0)
  reading atoms ...
  3500 atoms
  reading velocities ...
  3500 velocities

# THEN: Define potential (after box is defined)
# Morse potential for strong ceramic bonding
# This gives REAL solid behavior, not gas!

# Morse potential - much better for solids than LJ
pair_style morse 12.0

# NOW set pair coefficients (after both pair_style and read_data)
# D0=5.0 eV (strong bonds), alpha=2.0, r0=2.5 Angstrom
pair_coeff * * 5.0 2.0 2.5

# Neighbor list
neighbor 2.0 bin
neigh_modify every 1 delay 0 check yes

# STAGE 1: QUENCH from 4500K to 300K at 5 K/ps
# This will take 840.0 ps
# Use NVT to maintain density during cooling
fix 1 all nvt temp 4500 300 $(100.0*dt)
fix 1 all nvt temp 4500 300 0.10000000000000000555
timestep 0.001

# Output
thermo 1000
thermo_style custom step time temp press vol etotal ke pe density
dump 1 all custom 5000 Li2Fe3SbO8_quench_5Kps_trajectory.dump id type x y z vx vy vz

print "Starting QUENCH of Li2Fe3SbO8 from liquid at 4500K to 300K"
Starting QUENCH of Li2Fe3SbO8 from liquid at 4500K to 300K
print "Cooling rate: 5 K/ps - expecting crystalline"
Cooling rate: 5 K/ps - expecting crystalline
run 840000

CITE-CITE-CITE-CITE-CITE-CITE-CITE-CITE-CITE-CITE-CITE-CITE-CITE

Your simulation uses code contributions which should be cited:

- Type Label Framework: https://doi.org/10.1021/acs.jpcb.3c08419

@Article{Gissinger24,
 author = {Jacob R. Gissinger, Ilia Nikiforov, Yaser Afshar, Brendon Waters, Moon-ki Choi, Daniel S. Karls, Alexander Stukowski, Wonpil Im, Hendrik Heinz, Axel Kohlmeyer, and Ellad B. Tadmor},
 title = {Type Label Framework for Bonded Force Fields in LAMMPS},
 journal = {J. Phys. Chem. B},
 year =    2024,
 volume =  128,
 number =  13,
 pages =   {3282â€“-3297}
}

CITE-CITE-CITE-CITE-CITE-CITE-CITE-CITE-CITE-CITE-CITE-CITE-CITE

Generated 0 of 6 mixed pair_coeff terms from geometric mixing rule
Step          Time           Temp          Press          Volume         TotEng         KinEng         PotEng        Density
0   0              4452.1197     -1929203.1      38190.418     -125757.68      2013.6102     -127771.29      4.686897
Averages over the last 421 of 841 rows, steps 420000 to 840000:
Temp Press Volume TotEng KinEng PotEng Density
1350.81 -2.1843e+06 38190.4 -128630 610.947 -129241 4.6869
Loop time of 3039.76 on 6 procs for 840000 steps with 3500 atoms

# STAGE 2: Equilibrate at 300K for 50 ps
unfix 1
fix 1 all nvt temp 300 300 $(100.0*dt)
fix 1 all nvt temp 300 300 0.10000000000000000555

print "Equilibrating Li2Fe3SbO8 quenched structure at 300K"
Equilibrating Li2Fe3SbO8 quenched structure at 300K
run 50000
Generated 0 of 6 mixed pair_coeff terms from geometric mixing rule
Step          Time           Temp          Press          Volume         TotEng         KinEng         PotEng        Density
840000   840            302.24137     -2269971.8      38190.418     -129592.98      136.69811     -129729.68      4.686897
Averages over the last 26 of 51 rows, steps 865000 to 890000:
Temp Press Volume TotEng KinEng PotEng Density
300.047 -2.27013e+06 38190.4 -129591 135.706 -129727 4.6869
Loop time of 182.016 on 6 procs for 50000 steps with 3500 atoms

# STAGE 3: Final minimization
minimize 1.0e-4 1.0e-6 1000 10000
Generated 0 of 6 mixed pair_coeff terms from geometric mixing rule
Step          Time           Temp          Press          Volume         TotEng         KinEng         PotEng        Density
890000   890            303.91198     -2269925.8      38190.418     -129587.57      137.45369     -129725.02      4.686897
Loop time of 0.0308724 on 6 procs for 3 steps with 3500 atoms

Minimization stats:
  Stopping criterion = energy tolerance
  Energy initial, next-to-last, final =
  Force two-norm initial, final = 216.28112 40.482473
  Force max component initial, final = 9.1420048 8.8058093
  Final line search alpha, max atom move = 0.010853231 0.095571481
  Iterations, force evaluations = 3 6

# Save quenched structure with descriptive name
write_data Li2Fe3SbO8_quenched_5Kps_crystalline.data
System init for write_data ...
Generated 0 of 6 mixed pair_coeff terms from geometric mixing rule
write_dump all xyz Li2Fe3SbO8_quenched_5Kps_crystalline.xyz modify element Li Fe Sb O
undump 1

print "QUENCH COMPLETE for {formula} at {cooling_rate} K/ps - structure type: {structure_type}"
QUENCH COMPLETE for {formula} at {cooling_rate} K/ps - structure type: {structure_type}
