LAMMPS (29 Aug 2024)
# LAMMPS Quenching Script for Li2Mn3SbO8 - 5 K/ps
# VERY SLOW quench - mostly crystalline
units metal
atom_style charge
boundary p p p
processors * * *  # Use all available processors

# Read melted/liquid structure
read_data Li2Mn3SbO8_melted_liquid.data
Reading data file ...
  triclinic box = (-478.41697 -414.32232 -777.82955) to (508.56487 440.43123 826.84521) with tilt (-493.48979 0.014273769 -0.024880881)
  reading atoms ...
  3500 atoms
  reading velocities ...
  3500 velocities

# Define potential
# Lennard-Jones + Coulomb potential for ceramics
# Assigns approximate charges based on oxidation states

# Set charges for each atom type
set type 1 charge 2.0
Setting atom values ...
  500 settings made for charge
set type 2 charge 3.0
Setting atom values ...
  750 settings made for charge
set type 3 charge -2.0
Setting atom values ...
  250 settings made for charge
set type 4 charge 1.0
Setting atom values ...
  2000 settings made for charge

# Use hybrid potential: LJ for short-range, Coulomb for long-range
pair_style hybrid/overlay lj/cut 10.0 coul/cut 12.0
pair_coeff * * lj/cut 0.010 3.0  # LJ parameters (epsilon=0.01 eV, sigma=3.0 Angstrom)
pair_coeff * * coul/cut  # Coulombic interactions

# Note: For better accuracy with long-range electrostatics, use:
# pair_style hybrid/overlay lj/cut 10.0 coul/long 12.0
# kspace_style pppm 1e-4
# But this requires more setup and is slower

# Neighbor list
neighbor 2.0 bin
neigh_modify every 1 delay 0 check yes

# STAGE 1: QUENCH from 3500K to 300K at 5 K/ps
# This will take 640.0 ps
fix 1 all npt temp 3500 300 $(100.0*dt) iso 1.0 1.0 $(1000.0*dt)
fix 1 all npt temp 3500 300 0.10000000000000000555 iso 1.0 1.0 $(1000.0*dt)
fix 1 all npt temp 3500 300 0.10000000000000000555 iso 1.0 1.0 1
timestep 0.001

# Output
thermo 1000
thermo_style custom step time temp press vol etotal ke pe density
dump 1 all custom 5000 Li2Mn3SbO8_quench_5Kps_trajectory.dump id type x y z vx vy vz

print "Starting QUENCH of Li2Mn3SbO8 from liquid at 3500K to 300K"
Starting QUENCH of Li2Mn3SbO8 from liquid at 3500K to 300K
print "Cooling rate: 5 K/ps - expecting crystalline"
Cooling rate: 5 K/ps - expecting crystalline
run 640000

CITE-CITE-CITE-CITE-CITE-CITE-CITE-CITE-CITE-CITE-CITE-CITE-CITE

Your simulation uses code contributions which should be cited:

- Type Label Framework: https://doi.org/10.1021/acs.jpcb.3c08419

@Article{Gissinger24,
 author = {Jacob R. Gissinger, Ilia Nikiforov, Yaser Afshar, Brendon Waters, Moon-ki Choi, Daniel S. Karls, Alexander Stukowski, Wonpil Im, Hendrik Heinz, Axel Kohlmeyer, and Ellad B. Tadmor},
 title = {Type Label Framework for Bonded Force Fields in LAMMPS},
 journal = {J. Phys. Chem. B},
 year =    2024,
 volume =  128,
 number =  13,
 pages =   {3282â€“-3297}
}

CITE-CITE-CITE-CITE-CITE-CITE-CITE-CITE-CITE-CITE-CITE-CITE-CITE

Generated 0 of 6 mixed pair_coeff terms from geometric mixing rule
Step          Time           Temp          Press          Volume         TotEng         KinEng         PotEng        Density
0   0              3483.1597      0.9553501      1.3537457e+09 -8476.5539      1575.3678     -10051.922      0.00013138733
Averages over the last 321 of 641 rows, steps 320000 to 640000:
Temp Press Volume TotEng KinEng PotEng Density
1099.65 1.01278 4.60297e+08 -9634.6 497.35 -10131.9 0.000483476
Loop time of 39.0837 on 6 procs for 640000 steps with 3500 atoms

# STAGE 2: Equilibrate at 300K for 50 ps
unfix 1
fix 1 all npt temp 300 300 $(100.0*dt) iso 1.0 1.0 $(1000.0*dt)
fix 1 all npt temp 300 300 0.10000000000000000555 iso 1.0 1.0 $(1000.0*dt)
fix 1 all npt temp 300 300 0.10000000000000000555 iso 1.0 1.0 1

print "Equilibrating Li2Mn3SbO8 quenched structure at 300K"
Equilibrating Li2Mn3SbO8 quenched structure at 300K
run 50000
Generated 0 of 6 mixed pair_coeff terms from geometric mixing rule
Step          Time           Temp          Press          Volume         TotEng         KinEng         PotEng        Density
640000   640            305.82868      1.1388366      1.3427366e+08 -10015.289      138.32058     -10153.609      0.0013246457
Averages over the last 26 of 51 rows, steps 665000 to 690000:
Temp Press Volume TotEng KinEng PotEng Density
298.959 0.956634 1.29533e+08 -10029.4 135.213 -10164.6 0.00137339
Loop time of 1.98176 on 6 procs for 50000 steps with 3500 atoms

# STAGE 3: Final minimization
minimize 1.0e-4 1.0e-6 1000 10000
Generated 0 of 6 mixed pair_coeff terms from geometric mixing rule
Step          Time           Temp          Press          Volume         TotEng         KinEng         PotEng        Density
690000   690            302.14043      0.9503613      1.3122795e+08 -10027.356      136.65245     -10164.009      0.0013553898
Loop time of 0.000987583 on 6 procs for 4 steps with 3500 atoms

Minimization stats:
  Stopping criterion = energy tolerance
  Energy initial, next-to-last, final =
  Force two-norm initial, final = 40.299219 17.410375
  Force max component initial, final = 5.8528388 5.3964857
  Final line search alpha, max atom move = 0.027371417 0.14770946
  Iterations, force evaluations = 4 8

# Save quenched structure with descriptive name
write_data Li2Mn3SbO8_quenched_5Kps_crystalline.data
System init for write_data ...
Generated 0 of 6 mixed pair_coeff terms from geometric mixing rule
write_dump all xyz Li2Mn3SbO8_quenched_5Kps_crystalline.xyz modify element Mn Sb O Li
undump 1

print "QUENCH COMPLETE for {formula} at {cooling_rate} K/ps - structure type: {structure_type}"
QUENCH COMPLETE for {formula} at {cooling_rate} K/ps - structure type: {structure_type}
