LAMMPS (29 Aug 2024)
# ---------- PREAMBLE ----------
units           metal
atom_style      charge
boundary        p p p
read_data       Li2MgGeO4_crystal.data
Reading data file ...
  orthogonal box = (0 0 0) to (29.874618 32.790958 37.714862)
  reading atoms ...
  3456 atoms

pair_style      buck/coul/long 12.0
kspace_style    pppm 1.0e-4
pair_modify     mix arithmetic
pair_coeff      * * 1388.77 0.3623 0.0

neighbor        4.0 bin
neigh_modify    every 1 delay 0 check yes
thermo          2000
thermo_style    custom step temp press pe etotal
thermo_modify   lost error

# ---------- SOFT START ----------
velocity        all create 300.0 12345 mom yes rot yes dist gaussian
fix             soft all nve/limit 0.03
fix             tl   all langevin 300.0 300.0 5.0 7777
timestep        0.001
run             1500

CITE-CITE-CITE-CITE-CITE-CITE-CITE-CITE-CITE-CITE-CITE-CITE-CITE

Your simulation uses code contributions which should be cited:

- Type Label Framework: https://doi.org/10.1021/acs.jpcb.3c08419

@Article{Gissinger24,
 author = {Jacob R. Gissinger, Ilia Nikiforov, Yaser Afshar, Brendon Waters, Moon-ki Choi, Daniel S. Karls, Alexander Stukowski, Wonpil Im, Hendrik Heinz, Axel Kohlmeyer, and Ellad B. Tadmor},
 title = {Type Label Framework for Bonded Force Fields in LAMMPS},
 journal = {J. Phys. Chem. B},
 year =    2024,
 volume =  128,
 number =  13,
 pages =   {3282â€“-3297}
}

CITE-CITE-CITE-CITE-CITE-CITE-CITE-CITE-CITE-CITE-CITE-CITE-CITE

PPPM initialization ...
  G vector (1/distance) = 0.24316038
  grid = 18 20 24
  stencil order = 5
  estimated absolute RMS force accuracy = 0.0010690377
  estimated relative force accuracy = 7.4240557e-05
  3d grid and FFT values/proc = 6375 1440
Generated 0 of 6 mixed pair_coeff terms from arithmetic mixing rule
Step          Temp          Press          PotEng         TotEng
0   300            4264628.7      26505.525      26639.504
Loop time of 8.93356 on 6 procs for 1500 steps with 3456 atoms

unfix           tl
unfix           soft

# ---------- GLOBAL PER-ATOM COMPUTES ----------
compute         csm all centro/atom fcc
compute         msdALL all msd
compute         gr all rdf 200

# ---------- FRACTION LADDER ----------
variable        frac index 0.200 0.400 0.600 0.800 1.000
label           FRAC_LOOP

# Pseudo-random per-atom noise in [0,1) based on position (no chunk/atom needed)
variable        seed equal 9999
variable        ph   atom "abs(sin((x*12.9898 + y*78.233 + z*37.719 + v_seed)*43758.5453))"
variable        noise atom "v_ph - floor(v_ph)"
variable        isHot atom "v_noise < v_frac"

# HOT/COLD groups for this fraction
group           HOT variable isHot
435 atoms in group HOT
group           COLD subtract all HOT
3021 atoms in group COLD

# Report selection
variable        nAll equal count(all)
variable        nHot equal count(HOT)
Selected HOT ~ 435/3456 atoms (target fraction = 0.200)

# ---------- PER-FRACTION SAMPLING ----------
compute         cavgHOT HOT reduce ave c_csm
fix             fobs all ave/time 200 1 200 c_msdALL[4] c_cavgHOT ave running file Li2MgGeO4_frac_0.200_obs.txt overwrite
fix             frdf all ave/time 200 1 200 c_gr[*] ave running file Li2MgGeO4_frac_0.200_rdf.txt mode vector overwrite

# ---------- SPLIT HEAT ----------
variable        Thot  equal 4000.0
variable        Tcold equal 300.0

fix             fH HOT  nvt temp 300 4000 5.0
fix             fC COLD nvt temp 300 300 5.0
fix             dtr all dt/reset 200 0.0008 0.0012 0.02
dump            dH HOT  custom 1000 Li2MgGeO4_frac_0.200_HOT.lammpstrj  id type x y z
dump            dC COLD custom 1000 Li2MgGeO4_frac_0.200_COLD.lammpstrj id type x y z
dump_modify     dH sort id
dump_modify     dC sort id

run             20000
PPPM initialization ...
  G vector (1/distance) = 0.24316038
  grid = 18 20 24
  stencil order = 5
  estimated absolute RMS force accuracy = 0.0010690377
  estimated relative force accuracy = 7.4240557e-05
  3d grid and FFT values/proc = 6375 1440
Generated 0 of 6 mixed pair_coeff terms from arithmetic mixing rule
Step          Temp          Press          PotEng         TotEng
1500   942.33356      3109477.1      9619.9156      10040.756
Averages over the last 6 of 12 rows, steps 12000 to 21500:
Temp Press PotEng TotEng
656.361 3.09382e+06 9379.04 9672.17
Loop time of 111.129 on 6 procs for 20000 steps with 3456 atoms

unfix           dtr
run             20000
PPPM initialization ...
  G vector (1/distance) = 0.24316038
  grid = 18 20 24
  stencil order = 5
  estimated absolute RMS force accuracy = 0.0010690377
  estimated relative force accuracy = 7.4240557e-05
  3d grid and FFT values/proc = 6375 1440
Generated 0 of 6 mixed pair_coeff terms from arithmetic mixing rule
Step          Temp          Press          PotEng         TotEng
21500   578.74609      3089659        9332.8401      9591.3045
Averages over the last 6 of 12 rows, steps 32000 to 41500:
Temp Press PotEng TotEng
390.966 3.08278e+06 9255.63 9430.24
Loop time of 106.419 on 6 procs for 20000 steps with 3456 atoms

# ---------- FAST QUENCH HOT -> 900 K ----------
fix_modify      fH temp 4000 900.0 5.0
ERROR: Could not find fix_modify temperature ID 4000 (src/fix_nh.cpp:1394)
