LAMMPS (29 Aug 2024)
units metal
atom_style charge
boundary p p p
processors * * *
atom_modify map array

# Read CHARGED liquid structure
read_data Li2U3PO54_melted_liquid_charged.data
Reading data file ...
  triclinic box = (0 0 0) to (27.729401 32.557337 63.438127) with tilt (-12.141273 -10.324197 -9.685184)
  reading atoms ...
  3625 atoms
  reading velocities ...
  3625 velocities

# Potential (charges in data file)
pair_style      buck/coul/long 12.0
kspace_style    pppm 1.0e-4
pair_modify     mix arithmetic
pair_coeff * *  1388.77 0.3623 0.0

neighbor 2.5 bin
neigh_modify every 2 delay 0 check yes
thermo_modify lost error

# Gentle start
fix lim all nve/limit 0.03
fix tl  all langevin 3500 3500 5.0 13579
timestep 0.001
thermo 5000
dump 1 all custom 100000 Li2U3PO54_quench_5Kps.dump id type x y z
run 5000

CITE-CITE-CITE-CITE-CITE-CITE-CITE-CITE-CITE-CITE-CITE-CITE-CITE

Your simulation uses code contributions which should be cited:

- Type Label Framework: https://doi.org/10.1021/acs.jpcb.3c08419

@Article{Gissinger24,
 author = {Jacob R. Gissinger, Ilia Nikiforov, Yaser Afshar, Brendon Waters, Moon-ki Choi, Daniel S. Karls, Alexander Stukowski, Wonpil Im, Hendrik Heinz, Axel Kohlmeyer, and Ellad B. Tadmor},
 title = {Type Label Framework for Bonded Force Fields in LAMMPS},
 journal = {J. Phys. Chem. B},
 year =    2024,
 volume =  128,
 number =  13,
 pages =   {3282â€“-3297}
}

CITE-CITE-CITE-CITE-CITE-CITE-CITE-CITE-CITE-CITE-CITE-CITE-CITE

PPPM initialization ...
  G vector (1/distance) = 0.23597932
  grid = 15 24 36
  stencil order = 5
  estimated absolute RMS force accuracy = 0.00044101717
  estimated relative force accuracy = 3.0626947e-05
  3d grid and FFT values/proc = 7942 2160
Generated 0 of 6 mixed pair_coeff terms from arithmetic mixing rule
Step          Temp          E_pair         E_mol          TotEng         Press
0   442.77841      9304.8193      0              9512.2338      941098.13
Loop time of 106.101 on 6 procs for 5000 steps with 3625 atoms

unfix lim
unfix tl

# NPT quench (Tdamp_T = 10 ps, Tdamp_P = 200 ps)
fix 1 all npt temp 3500 300 10.0 iso 1.0 1.0 200.0
print "Starting QUENCH of Li2U3PO54 from 3500K to 300K at 5 K/ps  (~640.0 ps)"
Starting QUENCH of Li2U3PO54 from 3500K to 300K at 5 K/ps  (~640.0 ps)
run 640000
PPPM initialization ...
  G vector (1/distance) = 0.23597932
  grid = 15 24 36
  stencil order = 5
  estimated absolute RMS force accuracy = 0.00044101717
  estimated relative force accuracy = 3.0626947e-05
  3d grid and FFT values/proc = 7942 2160
Generated 0 of 6 mixed pair_coeff terms from arithmetic mixing rule
Step          Temp          E_pair         E_mol          TotEng         Press          Volume
5000   1324.2863      8176.2139      0              8796.5609      981284.31      57271.653
Averages over the last 65 of 129 rows, steps 325000 to 645000:
Temp E_pair E_mol TotEng Press Volume
1119.38 -3744.05 0 -3219.69 17424.7 185663
Loop time of 9142.97 on 6 procs for 640000 steps with 3625 atoms

unfix 1

# Final NVT equilibration
fix 2 all nvt temp 300 300 5.0
run 30000
PPPM initialization ...
  G vector (1/distance) = 0.2186682
  grid = 18 27 45
  stencil order = 5
  estimated absolute RMS force accuracy = 0.00071628612
  estimated relative force accuracy = 4.9743318e-05
  3d grid and FFT values/proc = 11000 3888
Generated 0 of 6 mixed pair_coeff terms from arithmetic mixing rule
Step          Temp          E_pair         E_mol          TotEng         Press
645000   378.0607      -4152.1556      0             -3975.0573      4694.7279
Loop time of 324.185 on 6 procs for 30000 steps with 3625 atoms

unfix 2

# Final minimize + write
minimize 1.0e-4 1.0e-6 1000 10000
PPPM initialization ...
  G vector (1/distance) = 0.2186682
  grid = 18 27 45
  stencil order = 5
  estimated absolute RMS force accuracy = 0.00071628612
  estimated relative force accuracy = 4.9743318e-05
  3d grid and FFT values/proc = 11000 3888
Generated 0 of 6 mixed pair_coeff terms from arithmetic mixing rule
Step          Temp          E_pair         E_mol          TotEng         Press
675000   297.67899     -4211.6296      0             -4072.1852      3949.5161
Loop time of 0.528292 on 6 procs for 40 steps with 3625 atoms

Minimization stats:
  Stopping criterion = energy tolerance
  Energy initial, next-to-last, final =
  Force two-norm initial, final = 13.672484 0.56379782
  Force max component initial, final = 0.97772091 0.1103316
  Final line search alpha, max atom move = 1 0.1103316
  Iterations, force evaluations = 40 40

write_data Li2U3PO54_quenched_5Kps_crystalline.data
System init for write_data ...
PPPM initialization ...
  G vector (1/distance) = 0.2186682
  grid = 18 27 45
  stencil order = 5
  estimated absolute RMS force accuracy = 0.00071628612
  estimated relative force accuracy = 4.9743318e-05
  3d grid and FFT values/proc = 11000 3888
Generated 0 of 6 mixed pair_coeff terms from arithmetic mixing rule
write_dump all xyz Li2U3PO54_quenched_5Kps_crystalline.xyz modify element Li U O P
undump 1

print "QUENCH COMPLETE for Li2U3PO54 at 5 K/ps - structure type: crystalline"
QUENCH COMPLETE for Li2U3PO54 at 5 K/ps - structure type: crystalline
