LAMMPS (29 Aug 2024)
units metal
atom_style charge
boundary p p p
processors * * *
atom_modify map array
comm_modify vel yes

read_data Li2Mn3SeO34_melted_liquid_charged.data
Reading data file ...
  triclinic box = (0 0 0) to (39.407352 39.308664 52.924087) with tilt (-19.196134 1.815964 -15.916758)
  reading atoms ...
  5250 atoms
  reading velocities ...
  5250 velocities

pair_style      buck/coul/long 12.0
kspace_style    pppm 1.0e-4
pair_modify     mix arithmetic
pair_coeff * *  1388.77 0.3623 0.0

neighbor 4.0 bin
neigh_modify every 1 delay 0 check yes
thermo_modify lost error

# RDF during quench
compute gr all rdf 200
fix frdf all ave/time 200 1 200 c_gr[*] ave running file Li2Mn3SeO34_quench_50Kps_rdf.txt mode vector overwrite

# Gentle start
fix lim all nve/limit 0.03
fix tl  all langevin 3500 3500 5.0 13579
timestep 0.001
thermo 5000
dump 1 all custom 100000 Li2Mn3SeO34_quench_50Kps.dump id type x y z
run 5000

CITE-CITE-CITE-CITE-CITE-CITE-CITE-CITE-CITE-CITE-CITE-CITE-CITE

Your simulation uses code contributions which should be cited:

- Type Label Framework: https://doi.org/10.1021/acs.jpcb.3c08419

@Article{Gissinger24,
 author = {Jacob R. Gissinger, Ilia Nikiforov, Yaser Afshar, Brendon Waters, Moon-ki Choi, Daniel S. Karls, Alexander Stukowski, Wonpil Im, Hendrik Heinz, Axel Kohlmeyer, and Ellad B. Tadmor},
 title = {Type Label Framework for Bonded Force Fields in LAMMPS},
 journal = {J. Phys. Chem. B},
 year =    2024,
 volume =  128,
 number =  13,
 pages =   {3282â€“-3297}
}

CITE-CITE-CITE-CITE-CITE-CITE-CITE-CITE-CITE-CITE-CITE-CITE-CITE

PPPM initialization ...
  G vector (1/distance) = 0.22807907
  grid = 18 24 30
  stencil order = 5
  estimated absolute RMS force accuracy = 0.00061219917
  estimated relative force accuracy = 4.2514879e-05
  3d grid and FFT values/proc = 8075 2160
Generated 0 of 6 mixed pair_coeff terms from arithmetic mixing rule
Step          Temp          E_pair         E_mol          TotEng         Press
0   482.37901      14545.138      0              14872.426      981600.43
Loop time of 29.6566 on 6 procs for 5000 steps with 5250 atoms

unfix lim
unfix tl

# NPT quench
fix 1 all npt temp 3500 300 10.0 iso 1.0 1.0 200.0
print "Starting QUENCH of Li2Mn3SeO34 from 3500K to 300K at 50 K/ps  (~64.0 ps)"
Starting QUENCH of Li2Mn3SeO34 from 3500K to 300K at 50 K/ps  (~64.0 ps)
run 64000
PPPM initialization ...
  G vector (1/distance) = 0.22807907
  grid = 18 24 30
  stencil order = 5
  estimated absolute RMS force accuracy = 0.00061219917
  estimated relative force accuracy = 4.2514879e-05
  3d grid and FFT values/proc = 8075 2160
Generated 0 of 6 mixed pair_coeff terms from arithmetic mixing rule
Step          Temp          E_pair         E_mol          TotEng         Press          Volume
5000   1357.5919      14479.235      0              15400.343      1023310.1      81982.076
Averages over the last 7 of 14 rows, steps 40000 to 69000:
Temp E_pair E_mol TotEng Press Volume
1582.58 4234.96 0 5308.72 427093 107083
Loop time of 332.409 on 6 procs for 64000 steps with 5250 atoms

unfix 1

# Final NVT equilibration
fix 2 all nvt temp 300 300 5.0
run 30000
PPPM initialization ...
  G vector (1/distance) = 0.22791719
  grid = 20 27 30
  stencil order = 5
  estimated absolute RMS force accuracy = 0.00052630396
  estimated relative force accuracy = 3.6549787e-05
  3d grid and FFT values/proc = 9639 2800
Generated 0 of 6 mixed pair_coeff terms from arithmetic mixing rule
Step          Temp          E_pair         E_mol          TotEng         Press
69000   1196.6909      2533.0427      0              3344.9813      338966.15
Averages over the last 4 of 8 rows, steps 85000 to 99000:
Temp E_pair E_mol TotEng Press
427.771 2013.16 0 2303.4 318805
Loop time of 127.977 on 6 procs for 30000 steps with 5250 atoms

unfix 2

# Final minimize + write
minimize 1.0e-4 1.0e-6 1000 10000
PPPM initialization ...
  G vector (1/distance) = 0.22791719
  grid = 20 27 30
  stencil order = 5
  estimated absolute RMS force accuracy = 0.00052630396
  estimated relative force accuracy = 3.6549787e-05
  3d grid and FFT values/proc = 9639 2800
Generated 0 of 6 mixed pair_coeff terms from arithmetic mixing rule
Step          Temp          E_pair         E_mol          TotEng         Press
99000   333.66012      1948.427       0              2174.8109      316330.49
Loop time of 0.144886 on 6 procs for 17 steps with 5250 atoms

Minimization stats:
  Stopping criterion = energy tolerance
  Energy initial, next-to-last, final =
  Force two-norm initial, final = 54.38103 1.2095858
  Force max component initial, final = 1.9686859 0.33486021
  Final line search alpha, max atom move = 0.36059036 0.12074736
  Iterations, force evaluations = 17 26

unfix frdf
write_data Li2Mn3SeO34_quenched_50Kps_mixed_crystalline.data
System init for write_data ...
PPPM initialization ...
  G vector (1/distance) = 0.22791719
  grid = 20 27 30
  stencil order = 5
  estimated absolute RMS force accuracy = 0.00052630396
  estimated relative force accuracy = 3.6549787e-05
  3d grid and FFT values/proc = 9639 2800
Generated 0 of 6 mixed pair_coeff terms from arithmetic mixing rule
write_dump all xyz Li2Mn3SeO34_quenched_50Kps_mixed_crystalline.xyz modify element O Li Se Mn
undump 1

print "QUENCH COMPLETE for Li2Mn3SeO34 at 50 K/ps - structure type: mixed_crystalline"
QUENCH COMPLETE for Li2Mn3SeO34 at 50 K/ps - structure type: mixed_crystalline
