LAMMPS (29 Aug 2024)
# LAMMPS Quenching Script - 10 K/ps
# SLOW quench - expecting mostly crystalline structure
units metal
atom_style charge
boundary p p p
processors * * *  # Use all available processors

# Read melted/liquid structure
read_data melted_liquid.data
Reading data file ...
  triclinic box = (-204.98526 -177.52245 -506.8383) to (230.23917 199.39298 569.28009) with tilt (-217.61218 0 0)
  reading atoms ...
  3000 atoms
  reading velocities ...
  3000 velocities

# Define potential
# Lennard-Jones + Coulomb potential for ceramics
# Assigns approximate charges based on oxidation states

# Set charges for each atom type
set type 1 charge 1.0
Setting atom values ...
  750 settings made for charge
set type 2 charge 0.0
Setting atom values ...
  375 settings made for charge
set type 3 charge 4.0
Setting atom values ...
  375 settings made for charge
set type 4 charge -2.0
Setting atom values ...
  1500 settings made for charge

# Use hybrid potential: LJ for short-range, Coulomb for long-range
pair_style hybrid/overlay lj/cut 10.0 coul/cut 12.0
pair_coeff * * lj/cut 0.010 3.0  # LJ parameters (epsilon=0.01 eV, sigma=3.0 Angstrom)
pair_coeff * * coul/cut  # Coulombic interactions

# Note: For better accuracy with long-range electrostatics, use:
# pair_style hybrid/overlay lj/cut 10.0 coul/long 12.0
# kspace_style pppm 1e-4
# But this requires more setup and is slower

# Neighbor list
neighbor 2.0 bin
neigh_modify every 1 delay 0 check yes

# STAGE 1: QUENCH from 4000K to 300K at 10 K/ps
# This will take 370.0 ps
fix 1 all npt temp 4000 300 $(100.0*dt) iso 1.0 1.0 $(1000.0*dt)
fix 1 all npt temp 4000 300 0.10000000000000000555 iso 1.0 1.0 $(1000.0*dt)
fix 1 all npt temp 4000 300 0.10000000000000000555 iso 1.0 1.0 1
timestep 0.001

# Output
thermo 1000
thermo_style custom step time temp press vol etotal ke pe density
dump 1 all custom 5000 quench_10Kps_trajectory.dump id type x y z vx vy vz

print "Starting QUENCH from liquid at 4000K to 300K"
Starting QUENCH from liquid at 4000K to 300K
print "Cooling rate: 10 K/ps - expecting mostly_crystalline"
Cooling rate: 10 K/ps - expecting mostly_crystalline
run 370000

CITE-CITE-CITE-CITE-CITE-CITE-CITE-CITE-CITE-CITE-CITE-CITE-CITE

Your simulation uses code contributions which should be cited:

- Type Label Framework: https://doi.org/10.1021/acs.jpcb.3c08419

@Article{Gissinger24,
 author = {Jacob R. Gissinger, Ilia Nikiforov, Yaser Afshar, Brendon Waters, Moon-ki Choi, Daniel S. Karls, Alexander Stukowski, Wonpil Im, Hendrik Heinz, Axel Kohlmeyer, and Ellad B. Tadmor},
 title = {Type Label Framework for Bonded Force Fields in LAMMPS},
 journal = {J. Phys. Chem. B},
 year =    2024,
 volume =  128,
 number =  13,
 pages =   {3282â€“-3297}
}

CITE-CITE-CITE-CITE-CITE-CITE-CITE-CITE-CITE-CITE-CITE-CITE-CITE

Generated 0 of 6 mixed pair_coeff terms from geometric mixing rule
Step          Time           Temp          Press          Volume         TotEng         KinEng         PotEng        Density
0   0              3991.5181     -1.4523927      1.7652948e+08 -49796.692      1547.3167     -51344.009      0.00090983666
Averages over the last 186 of 371 rows, steps 185000 to 370000:
Temp Press Volume TotEng KinEng PotEng Density
1227.81 1.47946 2.84066e+07 -51567.5 475.962 -52043.4 0.00958168
Loop time of 218.94 on 6 procs for 370000 steps with 3000 atoms

# STAGE 2: Equilibrate at 300K for 50 ps
unfix 1
fix 1 all npt temp 300 300 $(100.0*dt) iso 1.0 1.0 $(1000.0*dt)
fix 1 all npt temp 300 300 0.10000000000000000555 iso 1.0 1.0 $(1000.0*dt)
fix 1 all npt temp 300 300 0.10000000000000000555 iso 1.0 1.0 1

print "Equilibrating quenched structure at 300K"
Equilibrating quenched structure at 300K
run 50000
Generated 0 of 6 mixed pair_coeff terms from geometric mixing rule
Step          Time           Temp          Press          Volume         TotEng         KinEng         PotEng        Density
370000   370            299.75223      13.133326      5535534.3     -51930.255      116.19931     -52046.454      0.029014903
Averages over the last 26 of 51 rows, steps 395000 to 420000:
Temp Press Volume TotEng KinEng PotEng Density
299.031 -2.48055 2.78007e+06 -51975.4 115.92 -52091.4 0.0578565
Loop time of 27.6223 on 6 procs for 50000 steps with 3000 atoms

# STAGE 3: Final minimization
minimize 1.0e-4 1.0e-6 1000 10000
Generated 0 of 6 mixed pair_coeff terms from geometric mixing rule
Step          Time           Temp          Press          Volume         TotEng         KinEng         PotEng        Density
420000   420            294.65769      9.3390631      2759910.9     -51891.857      114.2244      -52006.082      0.058194991
Loop time of 0.0443622 on 6 procs for 2 steps with 3000 atoms

Minimization stats:
  Stopping criterion = linesearch alpha is zero
  Energy initial, next-to-last, final =
  Force two-norm initial, final = 91.556387 58.11221
  Force max component initial, final = 9.2980182 6.1344224
  Final line search alpha, max atom move = 2.4828746e-12 1.5231001e-11
  Iterations, force evaluations = 2 69

# Save quenched structure with descriptive name
write_data quenched_10Kps_mostly_crystalline.data
System init for write_data ...
Generated 0 of 6 mixed pair_coeff terms from geometric mixing rule
write_dump all xyz quenched_10Kps_mostly_crystalline.xyz modify element Li Eu Si O
undump 1

print "QUENCH COMPLETE at {cooling_rate} K/ps - structure type: {structure_type}"
QUENCH COMPLETE at {cooling_rate} K/ps - structure type: {structure_type}
