LAMMPS (29 Aug 2024)

units metal
atom_style charge
boundary p p p
processors * * *
atom_modify map array
comm_modify vel yes

read_data Rb2Li2SiO4_melted_liquid_charged.data
Reading data file ...
  triclinic box = (0 0 0) to (33.121146 34.132362 51.154578) with tilt (2.5626 13.39074 4.852116)
  reading atoms ...
  3888 atoms
  reading velocities ...
  3888 velocities

pair_style      buck/coul/long 12.0
kspace_style    pppm 1.0e-4
pair_modify     mix arithmetic
pair_coeff * *  1388.77 0.3623 0.0

neighbor 4.0 bin
neigh_modify every 1 delay 0 check yes
thermo_modify lost error

# --- Stage A: fast NPT to suppress early nucleation ---
compute gr all rdf 200
fix frdfa all ave/time 200 1 200 c_gr[*] ave running file Rb2Li2SiO4_quench_A50_rdfq6.txt mode vector overwrite
fix qa all npt temp 3500 900 10.0 iso 1.0 1.0 200.0
fix dtra all dt/reset 200 0.0008 0.0012 0.02
thermo 5000
dump qA all custom 10400 Rb2Li2SiO4_quench_A50.dump id type x y z
dump_modify qA sort id
run 52000

CITE-CITE-CITE-CITE-CITE-CITE-CITE-CITE-CITE-CITE-CITE-CITE-CITE

Your simulation uses code contributions which should be cited:

- Type Label Framework: https://doi.org/10.1021/acs.jpcb.3c08419

@Article{Gissinger24,
 author = {Jacob R. Gissinger, Ilia Nikiforov, Yaser Afshar, Brendon Waters, Moon-ki Choi, Daniel S. Karls, Alexander Stukowski, Wonpil Im, Hendrik Heinz, Axel Kohlmeyer, and Ellad B. Tadmor},
 title = {Type Label Framework for Bonded Force Fields in LAMMPS},
 journal = {J. Phys. Chem. B},
 year =    2024,
 volume =  128,
 number =  13,
 pages =   {3282â€“-3297}
}

CITE-CITE-CITE-CITE-CITE-CITE-CITE-CITE-CITE-CITE-CITE-CITE-CITE

PPPM initialization ...
  G vector (1/distance) = 0.23652987
  grid = 20 24 36
  stencil order = 5
  estimated absolute RMS force accuracy = 0.0012925754
  estimated relative force accuracy = 8.9764396e-05
  3d grid and FFT values/proc = 9747 2880
Generated 0 of 6 mixed pair_coeff terms from arithmetic mixing rule
Step          Temp          E_pair         E_mol          TotEng         Press          Volume
0   11127.288      17887.168      0              23477.898      1532679.3      57830.401
Averages over the last 6 of 12 rows, steps 30000 to 52000:
Temp E_pair E_mol TotEng Press Volume
5289.06 -9261.34 0 -6603.94 582733 73519.7
Loop time of 285.008 on 6 procs for 52000 steps with 3888 atoms

undump qA
unfix qa
unfix dtra

# --- Stage B: slow NPT to relax without ordering ---
fix qb all npt temp 900 300 10.0 iso 1.0 1.0 300.0
fix dtrb all dt/reset 200 0.0008 0.0012 0.02
dump qB all custom 24000 Rb2Li2SiO4_quench_B5.dump id type x y z
dump_modify qB sort id
run 120000
PPPM initialization ...
  G vector (1/distance) = 0.2363757
  grid = 24 24 40
  stencil order = 5
  estimated absolute RMS force accuracy = 0.0011348444
  estimated relative force accuracy = 7.8810581e-05
  3d grid and FFT values/proc = 12369 4032
Generated 0 of 6 mixed pair_coeff terms from arithmetic mixing rule
Step          Temp          E_pair         E_mol          TotEng         Press          Volume
52000   3573.0611     -11139.339      0             -9344.1106      465458.05      76422.513
Averages over the last 13 of 26 rows, steps 115000 to 172000:
Temp E_pair E_mol TotEng Press Volume
563.141 -16632.9 0 -16349.9 88045.2 107290
Loop time of 434.891 on 6 procs for 120000 steps with 3888 atoms

undump qB
unfix qb
unfix dtrb

unfix frdfa
minimize 1.0e-4 1.0e-6 1000 10000
PPPM initialization ...
  G vector (1/distance) = 0.23347052
  grid = 24 24 45
  stencil order = 5
  estimated absolute RMS force accuracy = 0.0011324817
  estimated relative force accuracy = 7.8646502e-05
  3d grid and FFT values/proc = 12958 4608
Generated 0 of 6 mixed pair_coeff terms from arithmetic mixing rule
Step          Temp          E_pair         E_mol          TotEng         Press
172000   371.38079     -17032.792      0             -16846.197      59672.735
Loop time of 0.0437944 on 6 procs for 10 steps with 3888 atoms

Minimization stats:
  Stopping criterion = energy tolerance
  Energy initial, next-to-last, final =
  Force two-norm initial, final = 37.520344 3.3517702
  Force max component initial, final = 1.7687044 0.88463992
  Final line search alpha, max atom move = 0.16327975 0.14444379
  Iterations, force evaluations = 10 10

write_data Rb2Li2SiO4_quenched_A50_B5.data
System init for write_data ...
PPPM initialization ...
  G vector (1/distance) = 0.23347052
  grid = 24 24 45
  stencil order = 5
  estimated absolute RMS force accuracy = 0.0011324817
  estimated relative force accuracy = 7.8646502e-05
  3d grid and FFT values/proc = 12958 4608
Generated 0 of 6 mixed pair_coeff terms from arithmetic mixing rule
write_dump all xyz Rb2Li2SiO4_quenched_A50_B5.xyz modify element Si O Rb Li
