LAMMPS (29 Aug 2024)
# ---------- PREAMBLE ----------
units           metal
atom_style      charge
boundary        p p p
read_data       Li2FeGeO4_crystal.data
Reading data file ...
  triclinic box = (0 0 0) to (37.61814 37.495856 32.520327) with tilt (-3.029578 17.300197 18.754369)
  reading atoms ...
  4000 atoms

pair_style      buck/coul/long 12.0
kspace_style    pppm 1.0e-4
pair_modify     mix arithmetic
pair_coeff      * * 1388.77 0.3623 0.0

neighbor        4.0 bin
neigh_modify    every 1 delay 0 check yes
thermo          2000
thermo_style    custom step temp press pe etotal
thermo_modify   lost error

# ---------- SOFT START ----------
velocity        all create 300.0 12345 mom yes rot yes dist gaussian
fix             soft all nve/limit 0.03
fix             tl   all langevin 300.0 300.0 5.0 7777
timestep        0.001
run             1500

CITE-CITE-CITE-CITE-CITE-CITE-CITE-CITE-CITE-CITE-CITE-CITE-CITE

Your simulation uses code contributions which should be cited:

- Type Label Framework: https://doi.org/10.1021/acs.jpcb.3c08419

@Article{Gissinger24,
 author = {Jacob R. Gissinger, Ilia Nikiforov, Yaser Afshar, Brendon Waters, Moon-ki Choi, Daniel S. Karls, Alexander Stukowski, Wonpil Im, Hendrik Heinz, Axel Kohlmeyer, and Ellad B. Tadmor},
 title = {Type Label Framework for Bonded Force Fields in LAMMPS},
 journal = {J. Phys. Chem. B},
 year =    2024,
 volume =  128,
 number =  13,
 pages =   {3282â€“-3297}
}

CITE-CITE-CITE-CITE-CITE-CITE-CITE-CITE-CITE-CITE-CITE-CITE-CITE

PPPM initialization ...
  G vector (1/distance) = 0.23300121
  grid = 24 24 40
  stencil order = 5
  estimated absolute RMS force accuracy = 0.0022703619
  estimated relative force accuracy = 0.00015766791
  3d grid and FFT values/proc = 13547 4032
Generated 0 of 6 mixed pair_coeff terms from arithmetic mixing rule
Step          Temp          Press          PotEng         TotEng
0   300            3479882.3      20305.399      20460.473
Loop time of 9.35451 on 6 procs for 1500 steps with 4000 atoms

unfix           tl
unfix           soft

# ---------- GLOBAL PER-ATOM COMPUTES ----------
compute         csm all centro/atom fcc
compute         msdALL all msd
compute         gr all rdf 200

# ---------- FRACTION LADDER ----------
variable        frac index 0.200 0.400 0.600 0.800 1.000
label           FRAC_LOOP

# Pseudo-random per-atom noise in [0,1) based on position (no chunk/atom needed)
variable        seed equal 9999
variable        ph   atom "abs(sin((x*12.9898 + y*78.233 + z*37.719 + v_seed)*43758.5453))"
variable        noise atom "v_ph - floor(v_ph)"
variable        isHot atom "v_noise < v_frac"

# HOT/COLD groups for this fraction
group           HOT variable isHot
522 atoms in group HOT
group           COLD subtract all HOT
3478 atoms in group COLD

# Report selection
variable        nAll equal count(all)
variable        nHot equal count(HOT)
Selected HOT ~ 522/4000 atoms (target fraction = 0.200)

# ---------- PER-FRACTION SAMPLING ----------
compute         cavgHOT HOT reduce ave c_csm
fix             fobs all ave/time 200 1 200 c_msdALL[4] c_cavgHOT ave running file Li2FeGeO4_frac_0.200_obs.txt overwrite
fix             frdf all ave/time 200 1 200 c_gr[*] ave running file Li2FeGeO4_frac_0.200_rdf.txt mode vector overwrite

# ---------- SPLIT HEAT ----------
variable        Thot  equal 4000.0
variable        Tcold equal 300.0

fix             fH HOT  nvt temp 300 4000 5.0
fix             fC COLD nvt temp 300 300 5.0
fix             dtr all dt/reset 200 0.0008 0.0012 0.02
dump            dH HOT  custom 1000 Li2FeGeO4_frac_0.200_HOT.lammpstrj  id type x y z
dump            dC COLD custom 1000 Li2FeGeO4_frac_0.200_COLD.lammpstrj id type x y z
dump_modify     dH sort id
dump_modify     dC sort id

run             20000
PPPM initialization ...
  G vector (1/distance) = 0.23300121
  grid = 24 24 40
  stencil order = 5
  estimated absolute RMS force accuracy = 0.0022703619
  estimated relative force accuracy = 0.00015766791
  3d grid and FFT values/proc = 13547 4032
Generated 0 of 6 mixed pair_coeff terms from arithmetic mixing rule
Step          Temp          Press          PotEng         TotEng
1500   1015.314       2470149.9      2947.9015      3472.7287
Averages over the last 6 of 12 rows, steps 12000 to 21500:
Temp Press PotEng TotEng
718.971 2.45066e+06 2584.91 2956.55
Loop time of 118.424 on 6 procs for 20000 steps with 4000 atoms

unfix           dtr
run             20000
PPPM initialization ...
  G vector (1/distance) = 0.23300121
  grid = 24 24 40
  stencil order = 5
  estimated absolute RMS force accuracy = 0.0022703619
  estimated relative force accuracy = 0.00015766791
  3d grid and FFT values/proc = 13547 4032
Generated 0 of 6 mixed pair_coeff terms from arithmetic mixing rule
Step          Temp          Press          PotEng         TotEng
21500   622.18617      2446470.6      2524.6061      2846.2212
Averages over the last 6 of 12 rows, steps 32000 to 41500:
Temp Press PotEng TotEng
415.128 2.43884e+06 2409.74 2624.32
Loop time of 115.195 on 6 procs for 20000 steps with 4000 atoms

# ---------- FAST QUENCH HOT -> 900 K ----------
unfix           fH
fix             fH HOT nvt temp 4000 900.0 5.0
run             50000
PPPM initialization ...
  G vector (1/distance) = 0.23300121
  grid = 24 24 40
  stencil order = 5
  estimated absolute RMS force accuracy = 0.0022703619
  estimated relative force accuracy = 0.00015766791
  3d grid and FFT values/proc = 13547 4032
Generated 0 of 6 mixed pair_coeff terms from arithmetic mixing rule
Step          Temp          Press          PotEng         TotEng
41500   381.39011      2437255.2      2387.6201      2584.765
Averages over the last 14 of 27 rows, steps 66000 to 91500:
Temp Press PotEng TotEng
300.1 2.43397e+06 2345.88 2501
Loop time of 292.575 on 6 procs for 50000 steps with 4000 atoms

# Merge thermostats
unfix           fH
unfix           fC
undump          dH
undump          dC

# ---------- WHOLE-BOX NPT COOL 900 -> 300 ----------
fix             cool all npt temp 900.0 300.0 10.0 iso 1.0 1.0 200.0
fix             dtr2 all dt/reset 200 0.0008 0.0012 0.02
dump            box all custom 2000 Li2FeGeO4_frac_0.200_BOX.lammpstrj id type x y z
dump_modify     box sort id
run             200000
PPPM initialization ...
  G vector (1/distance) = 0.23300121
  grid = 24 24 40
  stencil order = 5
  estimated absolute RMS force accuracy = 0.0022703619
  estimated relative force accuracy = 0.00015766791
  3d grid and FFT values/proc = 13547 4032
Generated 0 of 6 mixed pair_coeff terms from arithmetic mixing rule
Step          Temp          Press          PotEng         TotEng
91500   308.44511      2434288.2      2347.9247      2507.3634
Averages over the last 51 of 102 rows, steps 192000 to 291500:
Temp Press PotEng TotEng
477.046 80683.4 -21677.3 -21430.7
Loop time of 759.522 on 6 procs for 200000 steps with 4000 atoms

unfix           dtr2
unfix           cool
undump          box

# ---------- FINAL RELAX + SAVE ----------
minimize        1.0e-4 1.0e-6 1000 10000
PPPM initialization ...
  G vector (1/distance) = 0.22998457
  grid = 27 30 50
  stencil order = 5
  estimated absolute RMS force accuracy = 0.0017046488
  estimated relative force accuracy = 0.00011838131
  3d grid and FFT values/proc = 20979 7290
Generated 0 of 6 mixed pair_coeff terms from arithmetic mixing rule
Step          Temp          Press          PotEng         TotEng
291500   323.68528      35995.766     -22229.955     -22062.639
Loop time of 0.0357465 on 6 procs for 8 steps with 4000 atoms

Minimization stats:
  Stopping criterion = energy tolerance
  Energy initial, next-to-last, final =
  Force two-norm initial, final = 36.587663 3.4402448
  Force max component initial, final = 1.558618 0.19599509
  Final line search alpha, max atom move = 0.44025936 0.086288672
  Iterations, force evaluations = 8 9

write_data      Li2FeGeO4_out_frac_0.200.data
System init for write_data ...
PPPM initialization ...
  G vector (1/distance) = 0.22998457
  grid = 27 30 50
  stencil order = 5
  estimated absolute RMS force accuracy = 0.0017046488
  estimated relative force accuracy = 0.00011838131
  3d grid and FFT values/proc = 20979 7290
Generated 0 of 6 mixed pair_coeff terms from arithmetic mixing rule
write_dump      all xyz Li2FeGeO4_out_frac_0.200.xyz modify element Ge Li O Fe

# Teardown per-fraction sampling
unfix           fobs
unfix           frdf
uncompute       cavgHOT

# Next fraction
next            frac
jump            SELF FRAC_LOOP

# Pseudo-random per-atom noise in [0,1) based on position (no chunk/atom needed)
variable        seed equal 9999
variable        ph   atom "abs(sin((x*12.9898 + y*78.233 + z*37.719 + v_seed)*43758.5453))"
variable        noise atom "v_ph - floor(v_ph)"
variable        isHot atom "v_noise < v_frac"

# HOT/COLD groups for this fraction
group           HOT variable isHot
1443 atoms in group HOT
group           COLD subtract all HOT
2557 atoms in group COLD

# Report selection
variable        nAll equal count(all)
variable        nHot equal count(HOT)
Selected HOT ~ 1443/4000 atoms (target fraction = 0.400)

# ---------- PER-FRACTION SAMPLING ----------
compute         cavgHOT HOT reduce ave c_csm
fix             fobs all ave/time 200 1 200 c_msdALL[4] c_cavgHOT ave running file Li2FeGeO4_frac_0.400_obs.txt overwrite
fix             frdf all ave/time 200 1 200 c_gr[*] ave running file Li2FeGeO4_frac_0.400_rdf.txt mode vector overwrite

# ---------- SPLIT HEAT ----------
variable        Thot  equal 4000.0
variable        Tcold equal 300.0

fix             fH HOT  nvt temp 300 4000 5.0
fix             fC COLD nvt temp 300 300 5.0
fix             dtr all dt/reset 200 0.0008 0.0012 0.02
dump            dH HOT  custom 1000 Li2FeGeO4_frac_0.400_HOT.lammpstrj  id type x y z
dump            dC COLD custom 1000 Li2FeGeO4_frac_0.400_COLD.lammpstrj id type x y z
dump_modify     dH sort id
dump_modify     dC sort id

run             20000
PPPM initialization ...
  G vector (1/distance) = 0.22998457
  grid = 27 30 50
  stencil order = 5
  estimated absolute RMS force accuracy = 0.0017046488
  estimated relative force accuracy = 0.00011838131
  3d grid and FFT values/proc = 20979 7290
Generated 0 of 6 mixed pair_coeff terms from arithmetic mixing rule
Step          Temp          Press          PotEng         TotEng
291508   323.68528      32201.833     -22392.163     -22224.846
Averages over the last 6 of 12 rows, steps 302000 to 311508:
Temp Press PotEng TotEng
254.207 35549.5 -22278.3 -22146.9
Loop time of 59.9804 on 6 procs for 20000 steps with 4000 atoms

unfix           dtr
run             20000
PPPM initialization ...
  G vector (1/distance) = 0.22998457
  grid = 27 30 50
  stencil order = 5
  estimated absolute RMS force accuracy = 0.0017046488
  estimated relative force accuracy = 0.00011838131
  3d grid and FFT values/proc = 20979 7290
Generated 0 of 6 mixed pair_coeff terms from arithmetic mixing rule
Step          Temp          Press          PotEng         TotEng
311508   284.9595       36338.358     -22264.482     -22117.183
Averages over the last 6 of 12 rows, steps 322000 to 331508:
Temp Press PotEng TotEng
355.661 37528 -22229.2 -22045.4
Loop time of 60.8683 on 6 procs for 20000 steps with 4000 atoms

# ---------- FAST QUENCH HOT -> 900 K ----------
unfix           fH
fix             fH HOT nvt temp 4000 900.0 5.0
run             50000
PPPM initialization ...
  G vector (1/distance) = 0.22998457
  grid = 27 30 50
  stencil order = 5
  estimated absolute RMS force accuracy = 0.0017046488
  estimated relative force accuracy = 0.00011838131
  3d grid and FFT values/proc = 20979 7290
Generated 0 of 6 mixed pair_coeff terms from arithmetic mixing rule
Step          Temp          Press          PotEng         TotEng
331508   363.74595      37646.985     -22221.685     -22033.661
Averages over the last 14 of 27 rows, steps 356000 to 381508:
Temp Press PotEng TotEng
390.662 38560 -22219.4 -22017.5
Loop time of 151.705 on 6 procs for 50000 steps with 4000 atoms

# Merge thermostats
unfix           fH
unfix           fC
undump          dH
undump          dC

# ---------- WHOLE-BOX NPT COOL 900 -> 300 ----------
fix             cool all npt temp 900.0 300.0 10.0 iso 1.0 1.0 200.0
fix             dtr2 all dt/reset 200 0.0008 0.0012 0.02
dump            box all custom 2000 Li2FeGeO4_frac_0.400_BOX.lammpstrj id type x y z
dump_modify     box sort id
run             200000
PPPM initialization ...
  G vector (1/distance) = 0.22998457
  grid = 27 30 50
  stencil order = 5
  estimated absolute RMS force accuracy = 0.0017046488
  estimated relative force accuracy = 0.00011838131
  3d grid and FFT values/proc = 20979 7290
Generated 0 of 6 mixed pair_coeff terms from arithmetic mixing rule
Step          Temp          Press          PotEng         TotEng
381508   397.83846      38840.289     -22217.524     -22011.877
Averages over the last 51 of 102 rows, steps 482000 to 581508:
Temp Press PotEng TotEng
488.607 3960.31 -22469.7 -22217.1
Loop time of 648.072 on 6 procs for 200000 steps with 4000 atoms

unfix           dtr2
unfix           cool
undump          box

# ---------- FINAL RELAX + SAVE ----------
minimize        1.0e-4 1.0e-6 1000 10000
PPPM initialization ...
  G vector (1/distance) = 0.22813826
  grid = 30 32 54
  stencil order = 5
  estimated absolute RMS force accuracy = 0.0016585747
  estimated relative force accuracy = 0.00011518164
  3d grid and FFT values/proc = 23166 8640
Generated 0 of 6 mixed pair_coeff terms from arithmetic mixing rule
Step          Temp          Press          PotEng         TotEng
581508   346.3543       849.61836     -22551.392     -22372.358
Loop time of 0.045902 on 6 procs for 11 steps with 4000 atoms

Minimization stats:
  Stopping criterion = energy tolerance
  Energy initial, next-to-last, final =
  Force two-norm initial, final = 33.310479 2.7273259
  Force max component initial, final = 1.4662305 0.26181676
  Final line search alpha, max atom move = 0.21219353 0.055555822
  Iterations, force evaluations = 11 14

write_data      Li2FeGeO4_out_frac_0.400.data
System init for write_data ...
PPPM initialization ...
  G vector (1/distance) = 0.22813826
  grid = 30 32 54
  stencil order = 5
  estimated absolute RMS force accuracy = 0.0016585747
  estimated relative force accuracy = 0.00011518164
  3d grid and FFT values/proc = 23166 8640
Generated 0 of 6 mixed pair_coeff terms from arithmetic mixing rule
write_dump      all xyz Li2FeGeO4_out_frac_0.400.xyz modify element Ge Li O Fe

# Teardown per-fraction sampling
unfix           fobs
unfix           frdf
uncompute       cavgHOT

# Next fraction
next            frac
jump            SELF FRAC_LOOP

# Pseudo-random per-atom noise in [0,1) based on position (no chunk/atom needed)
variable        seed equal 9999
variable        ph   atom "abs(sin((x*12.9898 + y*78.233 + z*37.719 + v_seed)*43758.5453))"
variable        noise atom "v_ph - floor(v_ph)"
variable        isHot atom "v_noise < v_frac"

# HOT/COLD groups for this fraction
group           HOT variable isHot
2524 atoms in group HOT
group           COLD subtract all HOT
1476 atoms in group COLD

# Report selection
variable        nAll equal count(all)
variable        nHot equal count(HOT)
Selected HOT ~ 2524/4000 atoms (target fraction = 0.600)

# ---------- PER-FRACTION SAMPLING ----------
compute         cavgHOT HOT reduce ave c_csm
fix             fobs all ave/time 200 1 200 c_msdALL[4] c_cavgHOT ave running file Li2FeGeO4_frac_0.600_obs.txt overwrite
fix             frdf all ave/time 200 1 200 c_gr[*] ave running file Li2FeGeO4_frac_0.600_rdf.txt mode vector overwrite

# ---------- SPLIT HEAT ----------
variable        Thot  equal 4000.0
variable        Tcold equal 300.0

fix             fH HOT  nvt temp 300 4000 5.0
fix             fC COLD nvt temp 300 300 5.0
fix             dtr all dt/reset 200 0.0008 0.0012 0.02
dump            dH HOT  custom 1000 Li2FeGeO4_frac_0.600_HOT.lammpstrj  id type x y z
dump            dC COLD custom 1000 Li2FeGeO4_frac_0.600_COLD.lammpstrj id type x y z
dump_modify     dH sort id
dump_modify     dC sort id

run             20000
PPPM initialization ...
  G vector (1/distance) = 0.22813826
  grid = 30 32 54
  stencil order = 5
  estimated absolute RMS force accuracy = 0.0016585747
  estimated relative force accuracy = 0.00011518164
  3d grid and FFT values/proc = 23166 8640
Generated 0 of 6 mixed pair_coeff terms from arithmetic mixing rule
Step          Temp          Press          PotEng         TotEng
581519   346.3543      -1300.6677     -22720.314     -22541.28
Averages over the last 6 of 12 rows, steps 592000 to 601519:
Temp Press PotEng TotEng
275.519 194.589 -22594.2 -22451.8
Loop time of 56.7178 on 6 procs for 20000 steps with 4000 atoms

unfix           dtr
run             20000
PPPM initialization ...
  G vector (1/distance) = 0.22813826
  grid = 30 32 54
  stencil order = 5
  estimated absolute RMS force accuracy = 0.0016585747
  estimated relative force accuracy = 0.00011518164
  3d grid and FFT values/proc = 23166 8640
Generated 0 of 6 mixed pair_coeff terms from arithmetic mixing rule
Step          Temp          Press          PotEng         TotEng
601519   309.6353       631.24135     -22575.886     -22415.832
Averages over the last 6 of 12 rows, steps 612000 to 621519:
Temp Press PotEng TotEng
406.162 1537.41 -22524.5 -22314.6
Loop time of 56.547 on 6 procs for 20000 steps with 4000 atoms

# ---------- FAST QUENCH HOT -> 900 K ----------
unfix           fH
fix             fH HOT nvt temp 4000 900.0 5.0
run             50000
PPPM initialization ...
  G vector (1/distance) = 0.22813826
  grid = 30 32 54
  stencil order = 5
  estimated absolute RMS force accuracy = 0.0016585747
  estimated relative force accuracy = 0.00011518164
  3d grid and FFT values/proc = 23166 8640
Generated 0 of 6 mixed pair_coeff terms from arithmetic mixing rule
Step          Temp          Press          PotEng         TotEng
621519   436.66256      2257.4896     -22507.844     -22282.128
Averages over the last 14 of 27 rows, steps 646000 to 671519:
Temp Press PotEng TotEng
575.136 3383.64 -22439.6 -22142.3
Loop time of 141.291 on 6 procs for 50000 steps with 4000 atoms

# Merge thermostats
unfix           fH
unfix           fC
undump          dH
undump          dC

# ---------- WHOLE-BOX NPT COOL 900 -> 300 ----------
fix             cool all npt temp 900.0 300.0 10.0 iso 1.0 1.0 200.0
fix             dtr2 all dt/reset 200 0.0008 0.0012 0.02
dump            box all custom 2000 Li2FeGeO4_frac_0.600_BOX.lammpstrj id type x y z
dump_modify     box sort id
run             200000
PPPM initialization ...
  G vector (1/distance) = 0.22813826
  grid = 30 32 54
  stencil order = 5
  estimated absolute RMS force accuracy = 0.0016585747
  estimated relative force accuracy = 0.00011518164
  3d grid and FFT values/proc = 23166 8640
Generated 0 of 6 mixed pair_coeff terms from arithmetic mixing rule
Step          Temp          Press          PotEng         TotEng
671519   615.83515      3666.5409     -22423.315     -22104.983
Averages over the last 51 of 102 rows, steps 772000 to 871519:
Temp Press PotEng TotEng
506.495 42.3324 -22454.1 -22192.3
Loop time of 654.709 on 6 procs for 200000 steps with 4000 atoms

unfix           dtr2
unfix           cool
undump          box

# ---------- FINAL RELAX + SAVE ----------
minimize        1.0e-4 1.0e-6 1000 10000
PPPM initialization ...
  G vector (1/distance) = 0.22506125
  grid = 30 32 54
  stencil order = 5
  estimated absolute RMS force accuracy = 0.0018964161
  estimated relative force accuracy = 0.00013169881
  3d grid and FFT values/proc = 23166 8640
Generated 0 of 6 mixed pair_coeff terms from arithmetic mixing rule
Step          Temp          Press          PotEng         TotEng
871519   374.48287     -767.91626     -22533.832     -22340.258
Loop time of 0.0506963 on 6 procs for 9 steps with 4000 atoms

Minimization stats:
  Stopping criterion = energy tolerance
  Energy initial, next-to-last, final =
  Force two-norm initial, final = 33.711183 4.0525231
  Force max component initial, final = 2.0666749 0.30512944
  Final line search alpha, max atom move = 0.25889203 0.07899558
  Iterations, force evaluations = 9 11

write_data      Li2FeGeO4_out_frac_0.600.data
System init for write_data ...
PPPM initialization ...
  G vector (1/distance) = 0.22506125
  grid = 30 32 54
  stencil order = 5
  estimated absolute RMS force accuracy = 0.0018964161
  estimated relative force accuracy = 0.00013169881
  3d grid and FFT values/proc = 23166 8640
Generated 0 of 6 mixed pair_coeff terms from arithmetic mixing rule
write_dump      all xyz Li2FeGeO4_out_frac_0.600.xyz modify element Ge Li O Fe

# Teardown per-fraction sampling
unfix           fobs
unfix           frdf
uncompute       cavgHOT

# Next fraction
next            frac
jump            SELF FRAC_LOOP

# Pseudo-random per-atom noise in [0,1) based on position (no chunk/atom needed)
variable        seed equal 9999
variable        ph   atom "abs(sin((x*12.9898 + y*78.233 + z*37.719 + v_seed)*43758.5453))"
variable        noise atom "v_ph - floor(v_ph)"
variable        isHot atom "v_noise < v_frac"

# HOT/COLD groups for this fraction
group           HOT variable isHot
3387 atoms in group HOT
group           COLD subtract all HOT
613 atoms in group COLD

# Report selection
variable        nAll equal count(all)
variable        nHot equal count(HOT)
Selected HOT ~ 3387/4000 atoms (target fraction = 0.800)

# ---------- PER-FRACTION SAMPLING ----------
compute         cavgHOT HOT reduce ave c_csm
fix             fobs all ave/time 200 1 200 c_msdALL[4] c_cavgHOT ave running file Li2FeGeO4_frac_0.800_obs.txt overwrite
fix             frdf all ave/time 200 1 200 c_gr[*] ave running file Li2FeGeO4_frac_0.800_rdf.txt mode vector overwrite

# ---------- SPLIT HEAT ----------
variable        Thot  equal 4000.0
variable        Tcold equal 300.0

fix             fH HOT  nvt temp 300 4000 5.0
fix             fC COLD nvt temp 300 300 5.0
fix             dtr all dt/reset 200 0.0008 0.0012 0.02
dump            dH HOT  custom 1000 Li2FeGeO4_frac_0.800_HOT.lammpstrj  id type x y z
dump            dC COLD custom 1000 Li2FeGeO4_frac_0.800_COLD.lammpstrj id type x y z
dump_modify     dH sort id
dump_modify     dC sort id

run             20000
PPPM initialization ...
  G vector (1/distance) = 0.22506125
  grid = 30 32 54
  stencil order = 5
  estimated absolute RMS force accuracy = 0.0018964161
  estimated relative force accuracy = 0.00013169881
  3d grid and FFT values/proc = 23166 8640
Generated 0 of 6 mixed pair_coeff terms from arithmetic mixing rule
Step          Temp          Press          PotEng         TotEng
871528   374.48287     -2410.5439     -22697.267     -22503.693
Averages over the last 6 of 12 rows, steps 882000 to 891528:
Temp Press PotEng TotEng
317.918 -1074.32 -22571.5 -22407.2
Loop time of 52.9493 on 6 procs for 20000 steps with 4000 atoms

unfix           dtr
run             20000
PPPM initialization ...
  G vector (1/distance) = 0.22506125
  grid = 30 32 54
  stencil order = 5
  estimated absolute RMS force accuracy = 0.0018964161
  estimated relative force accuracy = 0.00013169881
  3d grid and FFT values/proc = 23166 8640
Generated 0 of 6 mixed pair_coeff terms from arithmetic mixing rule
Step          Temp          Press          PotEng         TotEng
891528   357.68494     -683.98793     -22550.279     -22365.388
Averages over the last 6 of 12 rows, steps 902000 to 911528:
Temp Press PotEng TotEng
501.577 -12.9927 -22471.5 -22212.2
Loop time of 52.7337 on 6 procs for 20000 steps with 4000 atoms

# ---------- FAST QUENCH HOT -> 900 K ----------
unfix           fH
fix             fH HOT nvt temp 4000 900.0 5.0
run             50000
PPPM initialization ...
  G vector (1/distance) = 0.22506125
  grid = 30 32 54
  stencil order = 5
  estimated absolute RMS force accuracy = 0.0018964161
  estimated relative force accuracy = 0.00013169881
  3d grid and FFT values/proc = 23166 8640
Generated 0 of 6 mixed pair_coeff terms from arithmetic mixing rule
Step          Temp          Press          PotEng         TotEng
911528   556.53487      625.73858     -22439.593     -22151.914
Averages over the last 14 of 27 rows, steps 936000 to 961528:
Temp Press PotEng TotEng
923.07 2539.12 -22248.7 -21771.6
Loop time of 134.773 on 6 procs for 50000 steps with 4000 atoms

# Merge thermostats
unfix           fH
unfix           fC
undump          dH
undump          dC

# ---------- WHOLE-BOX NPT COOL 900 -> 300 ----------
fix             cool all npt temp 900.0 300.0 10.0 iso 1.0 1.0 200.0
fix             dtr2 all dt/reset 200 0.0008 0.0012 0.02
dump            box all custom 2000 Li2FeGeO4_frac_0.800_BOX.lammpstrj id type x y z
dump_modify     box sort id
run             200000
PPPM initialization ...
  G vector (1/distance) = 0.22506125
  grid = 30 32 54
  stencil order = 5
  estimated absolute RMS force accuracy = 0.0018964161
  estimated relative force accuracy = 0.00013169881
  3d grid and FFT values/proc = 23166 8640
Generated 0 of 6 mixed pair_coeff terms from arithmetic mixing rule
Step          Temp          Press          PotEng         TotEng
961528   1000.3361      2939.4432     -22198.515     -21681.43
Averages over the last 51 of 102 rows, steps 1062000 to 1161528:
Temp Press PotEng TotEng
511.468 -649.48 -22443.2 -22178.8
Loop time of 637.052 on 6 procs for 200000 steps with 4000 atoms

unfix           dtr2
unfix           cool
undump          box

# ---------- FINAL RELAX + SAVE ----------
minimize        1.0e-4 1.0e-6 1000 10000
PPPM initialization ...
  G vector (1/distance) = 0.22365706
  grid = 30 32 54
  stencil order = 5
  estimated absolute RMS force accuracy = 0.0020162062
  estimated relative force accuracy = 0.00014001777
  3d grid and FFT values/proc = 23166 8640
Generated 0 of 6 mixed pair_coeff terms from arithmetic mixing rule
Step          Temp          Press          PotEng         TotEng
1161528   369.10551     -640.77458     -22518.993     -22328.198
Loop time of 0.0378353 on 6 procs for 11 steps with 4000 atoms

Minimization stats:
  Stopping criterion = energy tolerance
  Energy initial, next-to-last, final =
  Force two-norm initial, final = 33.50098 5.2757765
  Force max component initial, final = 1.7701268 1.1841586
  Final line search alpha, max atom move = 0.48152656 0.57020383
  Iterations, force evaluations = 11 12

write_data      Li2FeGeO4_out_frac_0.800.data
System init for write_data ...
PPPM initialization ...
  G vector (1/distance) = 0.22365706
  grid = 30 32 54
  stencil order = 5
  estimated absolute RMS force accuracy = 0.0020162062
  estimated relative force accuracy = 0.00014001777
  3d grid and FFT values/proc = 23166 8640
Generated 0 of 6 mixed pair_coeff terms from arithmetic mixing rule
write_dump      all xyz Li2FeGeO4_out_frac_0.800.xyz modify element Ge Li O Fe

# Teardown per-fraction sampling
unfix           fobs
unfix           frdf
uncompute       cavgHOT

# Next fraction
next            frac
jump            SELF FRAC_LOOP

# Pseudo-random per-atom noise in [0,1) based on position (no chunk/atom needed)
variable        seed equal 9999
variable        ph   atom "abs(sin((x*12.9898 + y*78.233 + z*37.719 + v_seed)*43758.5453))"
variable        noise atom "v_ph - floor(v_ph)"
variable        isHot atom "v_noise < v_frac"

# HOT/COLD groups for this fraction
group           HOT variable isHot
4000 atoms in group HOT
group           COLD subtract all HOT
0 atoms in group COLD

# Report selection
variable        nAll equal count(all)
variable        nHot equal count(HOT)
Selected HOT ~ 4000/4000 atoms (target fraction = 1.000)

# ---------- PER-FRACTION SAMPLING ----------
compute         cavgHOT HOT reduce ave c_csm
fix             fobs all ave/time 200 1 200 c_msdALL[4] c_cavgHOT ave running file Li2FeGeO4_frac_1.000_obs.txt overwrite
fix             frdf all ave/time 200 1 200 c_gr[*] ave running file Li2FeGeO4_frac_1.000_rdf.txt mode vector overwrite

# ---------- SPLIT HEAT ----------
variable        Thot  equal 4000.0
variable        Tcold equal 300.0

fix             fH HOT  nvt temp 300 4000 5.0
fix             fC COLD nvt temp 300 300 5.0
fix             dtr all dt/reset 200 0.0008 0.0012 0.02
dump            dH HOT  custom 1000 Li2FeGeO4_frac_1.000_HOT.lammpstrj  id type x y z
dump            dC COLD custom 1000 Li2FeGeO4_frac_1.000_COLD.lammpstrj id type x y z
dump_modify     dH sort id
dump_modify     dC sort id

run             20000
PPPM initialization ...
  G vector (1/distance) = 0.22365706
  grid = 30 32 54
  stencil order = 5
  estimated absolute RMS force accuracy = 0.0020162062
  estimated relative force accuracy = 0.00014001777
  3d grid and FFT values/proc = 23166 8640
Generated 0 of 6 mixed pair_coeff terms from arithmetic mixing rule
Step          Temp          Press          PotEng         TotEng
1161539   369.10551     -1797.7874     -22686.532     -22495.737
Averages over the last 6 of 12 rows, steps 1172000 to 1181539:
Temp Press PotEng TotEng
328.934 -1020 -22559.7 -22389.7
Loop time of 53.5485 on 6 procs for 20000 steps with 4000 atoms

unfix           dtr
run             20000
PPPM initialization ...
  G vector (1/distance) = 0.22365706
  grid = 30 32 54
  stencil order = 5
  estimated absolute RMS force accuracy = 0.0020162062
  estimated relative force accuracy = 0.00014001777
  3d grid and FFT values/proc = 23166 8640
Generated 0 of 6 mixed pair_coeff terms from arithmetic mixing rule
Step          Temp          Press          PotEng         TotEng
1181539   377.27389     -845.03267     -22535.623     -22340.605
Averages over the last 6 of 12 rows, steps 1192000 to 1201539:
Temp Press PotEng TotEng
623.201 -7.48126 -22437.2 -22115.1
Loop time of 53.9584 on 6 procs for 20000 steps with 4000 atoms

# ---------- FAST QUENCH HOT -> 900 K ----------
unfix           fH
fix             fH HOT nvt temp 4000 900.0 5.0
run             50000
PPPM initialization ...
  G vector (1/distance) = 0.22365706
  grid = 30 32 54
  stencil order = 5
  estimated absolute RMS force accuracy = 0.0020162062
  estimated relative force accuracy = 0.00014001777
  3d grid and FFT values/proc = 23166 8640
Generated 0 of 6 mixed pair_coeff terms from arithmetic mixing rule
Step          Temp          Press          PotEng         TotEng
1201539   736.25344      397.31965     -22394.881     -22014.303
Averages over the last 14 of 27 rows, steps 1226000 to 1251539:
Temp Press PotEng TotEng
1666.13 4083.49 -22056.8 -21195.6
Loop time of 140.898 on 6 procs for 50000 steps with 4000 atoms

# Merge thermostats
unfix           fH
unfix           fC
undump          dH
undump          dC

# ---------- WHOLE-BOX NPT COOL 900 -> 300 ----------
fix             cool all npt temp 900.0 300.0 10.0 iso 1.0 1.0 200.0
fix             dtr2 all dt/reset 200 0.0008 0.0012 0.02
dump            box all custom 2000 Li2FeGeO4_frac_1.000_BOX.lammpstrj id type x y z
dump_modify     box sort id
run             200000
PPPM initialization ...
  G vector (1/distance) = 0.22365706
  grid = 30 32 54
  stencil order = 5
  estimated absolute RMS force accuracy = 0.0020162062
  estimated relative force accuracy = 0.00014001777
  3d grid and FFT values/proc = 23166 8640
Generated 0 of 6 mixed pair_coeff terms from arithmetic mixing rule
Step          Temp          Press          PotEng         TotEng
1251539   1433.1098      3165.7063     -22109.836     -21369.046
Averages over the last 51 of 102 rows, steps 1352000 to 1451539:
Temp Press PotEng TotEng
483.155 -622.209 -22471.1 -22221.4
Loop time of 635.438 on 6 procs for 200000 steps with 4000 atoms

unfix           dtr2
unfix           cool
undump          box

# ---------- FINAL RELAX + SAVE ----------
minimize        1.0e-4 1.0e-6 1000 10000
PPPM initialization ...
  G vector (1/distance) = 0.22326074
  grid = 30 32 54
  stencil order = 5
  estimated absolute RMS force accuracy = 0.0020509306
  estimated relative force accuracy = 0.00014242924
  3d grid and FFT values/proc = 23166 8640
Generated 0 of 6 mixed pair_coeff terms from arithmetic mixing rule
Step          Temp          Press          PotEng         TotEng
1451539   352.66239     -487.5632      -22541.159     -22358.864
Loop time of 0.0305345 on 6 procs for 8 steps with 4000 atoms

Minimization stats:
  Stopping criterion = energy tolerance
  Energy initial, next-to-last, final =
  Force two-norm initial, final = 31.233621 4.2181578
  Force max component initial, final = 1.6790933 0.27382634
  Final line search alpha, max atom move = 0.38313214 0.10491167
  Iterations, force evaluations = 8 10

write_data      Li2FeGeO4_out_frac_1.000.data
System init for write_data ...
PPPM initialization ...
  G vector (1/distance) = 0.22326074
  grid = 30 32 54
  stencil order = 5
  estimated absolute RMS force accuracy = 0.0020509306
  estimated relative force accuracy = 0.00014242924
  3d grid and FFT values/proc = 23166 8640
Generated 0 of 6 mixed pair_coeff terms from arithmetic mixing rule
write_dump      all xyz Li2FeGeO4_out_frac_1.000.xyz modify element Ge Li O Fe

# Teardown per-fraction sampling
unfix           fobs
unfix           frdf
uncompute       cavgHOT

# Next fraction
next            frac
jump            SELF FRAC_LOOP
