LAMMPS (29 Aug 2024)
units metal
atom_style charge
boundary p p p
processors * * *
atom_modify map array

# Read CHARGED liquid structure
read_data Li2UMoO52_melted_liquid_charged.data
Reading data file ...
  triclinic box = (0 0 0) to (33.68042 35.09946 46.796311) with tilt (-9.212003 -8.987163 -18.925571)
  reading atoms ...
  3240 atoms
  reading velocities ...
  3240 velocities

# Potential (charges in data file)
pair_style      buck/coul/long 12.0
kspace_style    pppm 1.0e-4
pair_modify     mix arithmetic
pair_coeff * *  1388.77 0.3623 0.0

neighbor 2.5 bin
neigh_modify every 2 delay 0 check yes
thermo_modify lost error

# Gentle start
fix lim all nve/limit 0.03
fix tl  all langevin 5000 5000 5.0 13579
timestep 0.001
thermo 5000
dump 1 all custom 100000 Li2UMoO52_quench_50Kps.dump id type x y z
run 5000

CITE-CITE-CITE-CITE-CITE-CITE-CITE-CITE-CITE-CITE-CITE-CITE-CITE

Your simulation uses code contributions which should be cited:

- Type Label Framework: https://doi.org/10.1021/acs.jpcb.3c08419

@Article{Gissinger24,
 author = {Jacob R. Gissinger, Ilia Nikiforov, Yaser Afshar, Brendon Waters, Moon-ki Choi, Daniel S. Karls, Alexander Stukowski, Wonpil Im, Hendrik Heinz, Axel Kohlmeyer, and Ellad B. Tadmor},
 title = {Type Label Framework for Bonded Force Fields in LAMMPS},
 journal = {J. Phys. Chem. B},
 year =    2024,
 volume =  128,
 number =  13,
 pages =   {3282â€“-3297}
}

CITE-CITE-CITE-CITE-CITE-CITE-CITE-CITE-CITE-CITE-CITE-CITE-CITE

PPPM initialization ...
  G vector (1/distance) = 0.23837353
  grid = 18 24 36
  stencil order = 5
  estimated absolute RMS force accuracy = 0.00069755336
  estimated relative force accuracy = 4.84424e-05
  3d grid and FFT values/proc = 9025 2592
Generated 0 of 6 mixed pair_coeff terms from arithmetic mixing rule
Step          Temp          E_pair         E_mol          TotEng         Press
0   1168.3419      2174.9369      0              2664.0908      705185.29
Loop time of 17.1589 on 6 procs for 5000 steps with 3240 atoms

unfix lim
unfix tl

# NPT quench (Tdamp_T = 10 ps, Tdamp_P = 200 ps)
fix 1 all npt temp 5000 300 10.0 iso 1.0 1.0 200.0
print "Starting QUENCH of Li2UMoO52 from 5000K to 300K at 50 K/ps  (~94.0 ps)"
Starting QUENCH of Li2UMoO52 from 5000K to 300K at 50 K/ps  (~94.0 ps)
run 94000
PPPM initialization ...
  G vector (1/distance) = 0.23837353
  grid = 18 24 36
  stencil order = 5
  estimated absolute RMS force accuracy = 0.00069755336
  estimated relative force accuracy = 4.84424e-05
  3d grid and FFT values/proc = 9025 2592
Generated 0 of 6 mixed pair_coeff terms from arithmetic mixing rule
Step          Temp          E_pair         E_mol          TotEng         Press          Volume
5000   1337.0394     -302.6475       0              257.13562      717097.34      55320.94
Averages over the last 10 of 20 rows, steps 55000 to 99000:
Temp E_pair E_mol TotEng Press Volume
1740.96 -4963.88 0 -4234.98 252459 75555
Loop time of 302.679 on 6 procs for 94000 steps with 3240 atoms

unfix 1

# Final NVT equilibration
fix 2 all nvt temp 300 300 5.0
run 30000
PPPM initialization ...
  G vector (1/distance) = 0.2369817
  grid = 20 24 40
  stencil order = 5
  estimated absolute RMS force accuracy = 0.00063544738
  estimated relative force accuracy = 4.4129378e-05
  3d grid and FFT values/proc = 10773 3360
Generated 0 of 6 mixed pair_coeff terms from arithmetic mixing rule
Step          Temp          E_pair         E_mol          TotEng         Press
99000   1215.3566     -5879.4048      0             -5370.5671      182363.81
Averages over the last 4 of 8 rows, steps 115000 to 129000:
Temp E_pair E_mol TotEng Press
423.803 -6266.85 0 -6089.42 163712
Loop time of 75.3038 on 6 procs for 30000 steps with 3240 atoms

unfix 2

# Final minimize + write
minimize 1.0e-4 1.0e-6 1000 10000
PPPM initialization ...
  G vector (1/distance) = 0.2369817
  grid = 20 24 40
  stencil order = 5
  estimated absolute RMS force accuracy = 0.00063544738
  estimated relative force accuracy = 4.4129378e-05
  3d grid and FFT values/proc = 10773 3360
Generated 0 of 6 mixed pair_coeff terms from arithmetic mixing rule
Step          Temp          E_pair         E_mol          TotEng         Press
129000   330.45375     -6312.0818      0             -6173.7295      161515.47
Loop time of 0.0587297 on 6 procs for 11 steps with 3240 atoms

Minimization stats:
  Stopping criterion = energy tolerance
  Energy initial, next-to-last, final =
  Force two-norm initial, final = 36.639382 1.883157
  Force max component initial, final = 1.7361851 0.32140863
  Final line search alpha, max atom move = 0.46812688 0.15046002
  Iterations, force evaluations = 11 17

write_data Li2UMoO52_quenched_50Kps_mixed_crystalline.data
System init for write_data ...
PPPM initialization ...
  G vector (1/distance) = 0.2369817
  grid = 20 24 40
  stencil order = 5
  estimated absolute RMS force accuracy = 0.00063544738
  estimated relative force accuracy = 4.4129378e-05
  3d grid and FFT values/proc = 10773 3360
Generated 0 of 6 mixed pair_coeff terms from arithmetic mixing rule
write_dump all xyz Li2UMoO52_quenched_50Kps_mixed_crystalline.xyz modify element Li O Mo U
undump 1

print "QUENCH COMPLETE for Li2UMoO52 at 50 K/ps - structure type: mixed_crystalline"
QUENCH COMPLETE for Li2UMoO52 at 50 K/ps - structure type: mixed_crystalline
