LAMMPS (29 Aug 2024)
units metal
atom_style charge
boundary p p p
processors * * *
atom_modify map array

# Read crystal
read_data Cs2Li2SiO4_crystal.data
Reading data file ...
  triclinic box = (0 0 0) to (33.325006 34.453639 53.784475) with tilt (1.570908 13.086226 5.221077)
  reading atoms ...
  3888 atoms

# --- MELT: NO COULOMB (Buckingham only), no kspace ---
pair_style   buck 12.0
pair_modify  mix arithmetic
pair_coeff * * 1388.77 0.3623 0.0

# Conservative neighbor settings to avoid lost atoms during ramp/box changes
neighbor 3.0 bin
neigh_modify every 1 delay 0 check yes
thermo_modify lost error

# Quick minimize (remove worst overlaps)
minimize 1.0e-4 1.0e-6 500 5000

CITE-CITE-CITE-CITE-CITE-CITE-CITE-CITE-CITE-CITE-CITE-CITE-CITE

Your simulation uses code contributions which should be cited:

- Type Label Framework: https://doi.org/10.1021/acs.jpcb.3c08419

@Article{Gissinger24,
 author = {Jacob R. Gissinger, Ilia Nikiforov, Yaser Afshar, Brendon Waters, Moon-ki Choi, Daniel S. Karls, Alexander Stukowski, Wonpil Im, Hendrik Heinz, Axel Kohlmeyer, and Ellad B. Tadmor},
 title = {Type Label Framework for Bonded Force Fields in LAMMPS},
 journal = {J. Phys. Chem. B},
 year =    2024,
 volume =  128,
 number =  13,
 pages =   {3282â€“-3297}
}

CITE-CITE-CITE-CITE-CITE-CITE-CITE-CITE-CITE-CITE-CITE-CITE-CITE

Generated 0 of 6 mixed pair_coeff terms from arithmetic mixing rule
Step          Temp          E_pair         E_mol          TotEng         Press
0   0              53144.748      0              53144.748      2491841.2
Loop time of 1.12722 on 6 procs for 31 steps with 3888 atoms

Minimization stats:
  Stopping criterion = energy tolerance
  Energy initial, next-to-last, final =
  Force two-norm initial, final = 1644.5577 4.1174773
  Force max component initial, final = 44.457497 0.095794368
  Final line search alpha, max atom move = 0.81122743 0.077711019
  Iterations, force evaluations = 31 39

# Stage 0: 2 ps limiter + Langevin at 300 K to absorb shock
velocity all create 300.0 12345 dist gaussian mom yes rot yes
fix lim all nve/limit 0.03
fix tl  all langevin 300.0 300.0 5.0 90210
thermo 5000
timestep 0.001
run 2000
Generated 0 of 6 mixed pair_coeff terms from arithmetic mixing rule
Step          Temp          E_pair         E_mol          TotEng         Press
31   300            14978.841      0              15129.571      998247.92
Loop time of 43.108 on 6 procs for 2000 steps with 3888 atoms

unfix tl
unfix lim

# Stage 1: single-stage fast NVT ramp 300 -> 3500 K with adaptive dt
fix heat all nvt temp 300.0 3500 5.0
# Start at 1.5 fs but allow down to 1.0 fs if needed
timestep 0.0015
fix dtr all dt/reset 100 0.001 0.0015 0.02

dump 1 all custom 100000 Cs2Li2SiO4_melting_trajectory.dump id type x y z
print "Starting MELTING of Cs2Li2SiO4: single-stage NVT 300K -> 3500K over 8 ps"
Starting MELTING of Cs2Li2SiO4: single-stage NVT 300K -> 3500K over 8 ps
run 8000
Generated 0 of 6 mixed pair_coeff terms from arithmetic mixing rule
Step          Temp          E_pair         E_mol          TotEng         Press
2031   792.01454      14496.025      0              14893.96       980471.41
Loop time of 171.466 on 6 procs for 8000 steps with 3888 atoms

unfix heat
unfix dtr

# Stage 2: short NPT in liquid to relax density (conservative settings)
# Keep small timestep and frequent neighbor checks to avoid lost atoms on volume change
fix liq all npt temp 3500 3500 10.0 iso 1.0 1.0 100.0
# Keep dt at 1.5 fs but allow reduction if velocity spikes
timestep 0.0015
fix dtr2 all dt/reset 100 0.001 0.0015 0.02
run 5000
Generated 0 of 6 mixed pair_coeff terms from arithmetic mixing rule
Step          Temp          E_pair         E_mol          TotEng         Press          Volume
10031   977.60183      14486.794      0              14977.975      981929.13      61753.598
Loop time of 110.542 on 6 procs for 5000 steps with 3888 atoms

unfix dtr2
unfix liq

# Save liquid
write_data Cs2Li2SiO4_melted_liquid.data nocoeff
System init for write_data ...
Generated 0 of 6 mixed pair_coeff terms from arithmetic mixing rule
write_dump all xyz Cs2Li2SiO4_melted_liquid.xyz modify element Si Li Cs O
undump 1

print "MELTING COMPLETE for {formula} - liquid saved"
MELTING COMPLETE for {formula} - liquid saved
