LAMMPS (29 Aug 2024)

units metal
atom_style charge
boundary p p p
processors * * *
atom_modify map array
comm_modify vel yes

read_data Cs2Li2GeO4_melted_liquid_charged.data
Reading data file ...
  triclinic box = (0 0 0) to (34.467276 35.320344 56.197284) with tilt (2.136102 13.449792 4.775052)
  reading atoms ...
  3888 atoms
  reading velocities ...
  3888 velocities

pair_style      buck/coul/long 12.0
kspace_style    pppm 1.0e-4
pair_modify     mix arithmetic
pair_coeff * *  1388.77 0.3623 0.0

neighbor 4.0 bin
neigh_modify every 1 delay 0 check yes
thermo_modify lost error

# --- Stage A: fast NPT to suppress early nucleation ---
compute gr all rdf 200
fix frdfa all ave/time 200 1 200 c_gr[*] ave running file Cs2Li2GeO4_quench_A50_rdfq6.txt mode vector overwrite
fix qa all npt temp 3500 900 10.0 iso 1.0 1.0 200.0
fix dtra all dt/reset 200 0.0008 0.0012 0.02
thermo 5000
run 52000

CITE-CITE-CITE-CITE-CITE-CITE-CITE-CITE-CITE-CITE-CITE-CITE-CITE

Your simulation uses code contributions which should be cited:

- Type Label Framework: https://doi.org/10.1021/acs.jpcb.3c08419

@Article{Gissinger24,
 author = {Jacob R. Gissinger, Ilia Nikiforov, Yaser Afshar, Brendon Waters, Moon-ki Choi, Daniel S. Karls, Alexander Stukowski, Wonpil Im, Hendrik Heinz, Axel Kohlmeyer, and Ellad B. Tadmor},
 title = {Type Label Framework for Bonded Force Fields in LAMMPS},
 journal = {J. Phys. Chem. B},
 year =    2024,
 volume =  128,
 number =  13,
 pages =   {3282â€“-3297}
}

CITE-CITE-CITE-CITE-CITE-CITE-CITE-CITE-CITE-CITE-CITE-CITE-CITE

PPPM initialization ...
  G vector (1/distance) = 0.23884808
  grid = 20 24 40
  stencil order = 5
  estimated absolute RMS force accuracy = 0.00098969944
  estimated relative force accuracy = 6.8730822e-05
  3d grid and FFT values/proc = 10773 3360
Generated 0 of 6 mixed pair_coeff terms from arithmetic mixing rule
Step          Temp          E_pair         E_mol          TotEng         Press          Volume
0   10304.59       13219.668      0              18397.046      960008.16      68414.351
Averages over the last 6 of 12 rows, steps 30000 to 52000:
Temp E_pair E_mol TotEng Press Volume
5170.54 -11258 0 -8660.11 371530 84640.7
Loop time of 256.416 on 6 procs for 52000 steps with 3888 atoms

unfix qa
unfix dtra

# --- Stage B: slow NPT to relax without ordering ---
fix qb all npt temp 900 300 10.0 iso 1.0 1.0 300.0
fix dtrb all dt/reset 200 0.0008 0.0012 0.02
run 120000
PPPM initialization ...
  G vector (1/distance) = 0.23290121
  grid = 24 24 40
  stencil order = 5
  estimated absolute RMS force accuracy = 0.0013161908
  estimated relative force accuracy = 9.1404393e-05
  3d grid and FFT values/proc = 12369 4032
Generated 0 of 6 mixed pair_coeff terms from arithmetic mixing rule
Step          Temp          E_pair         E_mol          TotEng         Press          Volume
52000   3426.3029     -12688.891      0             -10967.399      294012.47      87533.544
Averages over the last 13 of 26 rows, steps 115000 to 172000:
Temp E_pair E_mol TotEng Press Volume
581.442 -16610.2 0 -16318.1 56833.5 117404
Loop time of 397.589 on 6 procs for 120000 steps with 3888 atoms

unfix qb
unfix dtrb

unfix frdfa
minimize 1.0e-4 1.0e-6 1000 10000
PPPM initialization ...
  G vector (1/distance) = 0.23256957
  grid = 24 24 45
  stencil order = 5
  estimated absolute RMS force accuracy = 0.0011320226
  estimated relative force accuracy = 7.8614616e-05
  3d grid and FFT values/proc = 12958 4608
Generated 0 of 6 mixed pair_coeff terms from arithmetic mixing rule
Step          Temp          E_pair         E_mol          TotEng         Press
172000   373.60023     -16886.417      0             -16698.708      38245.359
Loop time of 0.0440886 on 6 procs for 10 steps with 3888 atoms

Minimization stats:
  Stopping criterion = energy tolerance
  Energy initial, next-to-last, final =
  Force two-norm initial, final = 35.087886 4.3660341
  Force max component initial, final = 1.8790099 0.68561494
  Final line search alpha, max atom move = 0.66352183 0.45492048
  Iterations, force evaluations = 10 13

write_data Cs2Li2GeO4_quenched_A50_B5.data
System init for write_data ...
PPPM initialization ...
  G vector (1/distance) = 0.23256957
  grid = 24 24 45
  stencil order = 5
  estimated absolute RMS force accuracy = 0.0011320226
  estimated relative force accuracy = 7.8614616e-05
  3d grid and FFT values/proc = 12958 4608
Generated 0 of 6 mixed pair_coeff terms from arithmetic mixing rule
write_dump all xyz Cs2Li2GeO4_quenched_A50_B5.xyz modify element Ge O Li Cs
