LAMMPS (29 Aug 2024)
# LAMMPS Quenching Script for Li2Ta2OF23 - 5 K/ps
# VERY SLOW quench - mostly crystalline
units metal
atom_style charge
boundary p p p
processors * * *  # Use all available processors

# Read melted/liquid structure
read_data Li2Ta2OF23_melted_liquid.data
Reading data file ...
  triclinic box = (-365.0774 -316.16627 -1369.6001) to (393.4371 340.7265 1475.9925) with tilt (-379.25736 0 0)
  reading atoms ...
  4875 atoms
  reading velocities ...
  4875 velocities

# Define potential
# Lennard-Jones + Coulomb potential for ceramics
# Assigns approximate charges based on oxidation states

# Set charges for each atom type
set type 1 charge -1.0
Setting atom values ...
  750 settings made for charge
set type 2 charge -2.0
Setting atom values ...
  750 settings made for charge
set type 3 charge 0.0
Setting atom values ...
  1125 settings made for charge
set type 4 charge 1.0
Setting atom values ...
  2250 settings made for charge

# Use hybrid potential: LJ for short-range, Coulomb for long-range
pair_style hybrid/overlay lj/cut 10.0 coul/cut 12.0
pair_coeff * * lj/cut 0.010 3.0  # LJ parameters (epsilon=0.01 eV, sigma=3.0 Angstrom)
pair_coeff * * coul/cut  # Coulombic interactions

# Note: For better accuracy with long-range electrostatics, use:
# pair_style hybrid/overlay lj/cut 10.0 coul/long 12.0
# kspace_style pppm 1e-4
# But this requires more setup and is slower

# Neighbor list
neighbor 2.0 bin
neigh_modify every 1 delay 0 check yes

# STAGE 1: QUENCH from 5000K to 300K at 5 K/ps
# This will take 940.0 ps
fix 1 all npt temp 5000 300 $(100.0*dt) iso 1.0 1.0 $(1000.0*dt)
fix 1 all npt temp 5000 300 0.10000000000000000555 iso 1.0 1.0 $(1000.0*dt)
fix 1 all npt temp 5000 300 0.10000000000000000555 iso 1.0 1.0 1
timestep 0.001

# Output
thermo 1000
thermo_style custom step time temp press vol etotal ke pe density
dump 1 all custom 5000 Li2Ta2OF23_quench_5Kps_trajectory.dump id type x y z vx vy vz

print "Starting QUENCH of Li2Ta2OF23 from liquid at 5000K to 300K"
Starting QUENCH of Li2Ta2OF23 from liquid at 5000K to 300K
print "Cooling rate: 5 K/ps - expecting crystalline"
Cooling rate: 5 K/ps - expecting crystalline
run 940000

CITE-CITE-CITE-CITE-CITE-CITE-CITE-CITE-CITE-CITE-CITE-CITE-CITE

Your simulation uses code contributions which should be cited:

- Type Label Framework: https://doi.org/10.1021/acs.jpcb.3c08419

@Article{Gissinger24,
 author = {Jacob R. Gissinger, Ilia Nikiforov, Yaser Afshar, Brendon Waters, Moon-ki Choi, Daniel S. Karls, Alexander Stukowski, Wonpil Im, Hendrik Heinz, Axel Kohlmeyer, and Ellad B. Tadmor},
 title = {Type Label Framework for Bonded Force Fields in LAMMPS},
 journal = {J. Phys. Chem. B},
 year =    2024,
 volume =  128,
 number =  13,
 pages =   {3282â€“-3297}
}

CITE-CITE-CITE-CITE-CITE-CITE-CITE-CITE-CITE-CITE-CITE-CITE-CITE

Generated 0 of 6 mixed pair_coeff terms from geometric mixing rule
Step          Time           Temp          Press          Volume         TotEng         KinEng         PotEng        Density
0   0              5041.6516      1.1291042      1.4178526e+09 -13365.643      3176.3108     -16541.954      0.00023617987
Averages over the last 471 of 941 rows, steps 470000 to 940000:
Temp Press Volume TotEng KinEng PotEng Density
1476.58 0.897098 3.39636e+08 -18265.3 930.267 -19195.6 0.0039989
Loop time of 80.3973 on 6 procs for 940000 steps with 4875 atoms

# STAGE 2: Equilibrate at 300K for 50 ps
unfix 1
fix 1 all npt temp 300 300 $(100.0*dt) iso 1.0 1.0 $(1000.0*dt)
fix 1 all npt temp 300 300 0.10000000000000000555 iso 1.0 1.0 $(1000.0*dt)
fix 1 all npt temp 300 300 0.10000000000000000555 iso 1.0 1.0 1

print "Equilibrating Li2Ta2OF23 quenched structure at 300K"
Equilibrating Li2Ta2OF23 quenched structure at 300K
run 50000
Generated 0 of 6 mixed pair_coeff terms from geometric mixing rule
Step          Time           Temp          Press          Volume         TotEng         KinEng         PotEng        Density
940000   940            302.61935     -6.5220163      15506040      -22233.368      190.65441     -22424.022      0.021595988
Averages over the last 26 of 51 rows, steps 965000 to 990000:
Temp Press Volume TotEng KinEng PotEng Density
300.128 0.20394 1.30902e+07 -22335.5 189.085 -22524.5 0.0256289
Loop time of 5.38137 on 6 procs for 50000 steps with 4875 atoms

# STAGE 3: Final minimization
minimize 1.0e-4 1.0e-6 1000 10000
Generated 0 of 6 mixed pair_coeff terms from geometric mixing rule
Step          Time           Temp          Press          Volume         TotEng         KinEng         PotEng        Density
990000   990            296.97689      0.46150681     13770351      -22413.565      187.09958     -22600.665      0.024318062
Loop time of 0.00314706 on 6 procs for 6 steps with 4875 atoms

Minimization stats:
  Stopping criterion = energy tolerance
  Energy initial, next-to-last, final =
  Force two-norm initial, final = 55.963977 14.177468
  Force max component initial, final = 5.1581631 1.4220111
  Final line search alpha, max atom move = 0.0010536696 0.0014983299
  Iterations, force evaluations = 6 16

# Save quenched structure with descriptive name
write_data Li2Ta2OF23_quenched_5Kps_crystalline.data
System init for write_data ...
Generated 0 of 6 mixed pair_coeff terms from geometric mixing rule
write_dump all xyz Li2Ta2OF23_quenched_5Kps_crystalline.xyz modify element F O Ta Li
undump 1

print "QUENCH COMPLETE for {formula} at {cooling_rate} K/ps - structure type: {structure_type}"
QUENCH COMPLETE for {formula} at {cooling_rate} K/ps - structure type: {structure_type}
